CHEMBL1204261_diffdock_1
     RDKit          3D

 24 26  0  0  0  0  0  0  0  0999 V2000
  -16.3158    9.8939  -26.1401 C   0  0  0  0  0  0  0  0  0  0  0  0
  -15.2520   10.5893  -26.9346 C   0  0  0  0  0  0  0  0  0  0  0  0
  -15.1181   11.9393  -26.5683 O   0  0  0  0  0  0  0  0  0  0  0  0
  -14.1819   12.8151  -27.0992 C   0  0  0  0  0  0  0  0  0  0  0  0
  -13.2565   12.3187  -27.9818 C   0  0  0  0  0  0  0  0  0  0  0  0
  -12.3219   13.2096  -28.5068 C   0  0  0  0  0  0  0  0  0  0  0  0
  -11.4154   12.6828  -29.3688 N   0  0  0  0  0  0  0  0  0  0  0  0
  -10.4858   13.5097  -29.8881 C   0  0  0  0  0  0  0  0  0  0  0  0
  -10.4631   14.7981  -29.5628 N   0  0  0  0  0  0  0  0  0  0  0  0
  -11.3727   15.3409  -28.6959 C   0  0  0  0  0  0  0  0  0  0  0  0
  -11.2651   16.7086  -28.3816 N   0  0  0  0  0  0  0  0  0  0  0  0
  -10.3256   17.4992  -29.1347 C   0  0  0  0  0  0  0  0  0  0  0  0
   -9.4665   18.3886  -28.5366 C   0  0  0  0  0  0  0  0  0  0  0  0
   -8.5933   19.1742  -29.2727 C   0  0  0  0  0  0  0  0  0  0  0  0
   -8.5922   19.0527  -30.6637 C   0  0  0  0  0  0  0  0  0  0  0  0
   -9.4541   18.1585  -31.2794 C   0  0  0  0  0  0  0  0  0  0  0  0
   -9.4238   18.0722  -32.6524 F   0  0  0  0  0  0  0  0  0  0  0  0
  -10.3081   17.3928  -30.5243 C   0  0  0  0  0  0  0  0  0  0  0  0
  -12.3410   14.5370  -28.1402 C   0  0  0  0  0  0  0  0  0  0  0  0
  -13.2838   15.0046  -27.2514 C   0  0  0  0  0  0  0  0  0  0  0  0
  -14.2257   14.1336  -26.7160 C   0  0  0  0  0  0  0  0  0  0  0  0
  -15.1857   14.5459  -25.8278 O   0  0  0  0  0  0  0  0  0  0  0  0
  -15.0819   15.6886  -25.0138 C   0  0  0  0  0  0  0  0  0  0  0  0
  -16.3974   16.1391  -24.4382 C   0  0  0  0  0  0  0  0  0  0  0  0
  1  2  1  0
  2  3  1  0
  3  4  1  0
  4  5  2  0
  5  6  1  0
  6  7  2  0
  7  8  1  0
  8  9  2  0
  9 10  1  0
 10 11  1  0
 11 12  1  0
 12 13  2  0
 13 14  1  0
 14 15  2  0
 15 16  1  0
 16 17  1  0
 16 18  2  0
 10 19  2  0
 19 20  1  0
 20 21  2  0
 21 22  1  0
 22 23  1  0
 23 24  1  0
 21  4  1  0
 19  6  1  0
 18 12  1  0
M  END
$$$$
CHEMBL1204261_diffdock_2
     RDKit          3D

 24 26  0  0  0  0  0  0  0  0999 V2000
  -16.0469    9.9241  -25.5759 C   0  0  0  0  0  0  0  0  0  0  0  0
  -15.4067   10.7411  -26.6572 C   0  0  0  0  0  0  0  0  0  0  0  0
  -15.1232   12.0499  -26.2313 O   0  0  0  0  0  0  0  0  0  0  0  0
  -14.2247   12.9072  -26.8502 C   0  0  0  0  0  0  0  0  0  0  0  0
  -13.2684   12.3634  -27.6698 C   0  0  0  0  0  0  0  0  0  0  0  0
  -12.3723   13.2363  -28.2844 C   0  0  0  0  0  0  0  0  0  0  0  0
  -11.4336   12.6636  -29.0802 N   0  0  0  0  0  0  0  0  0  0  0  0
  -10.5395   13.4733  -29.6823 C   0  0  0  0  0  0  0  0  0  0  0  0
  -10.5812   14.7890  -29.4989 N   0  0  0  0  0  0  0  0  0  0  0  0
  -11.5238   15.3779  -28.7000 C   0  0  0  0  0  0  0  0  0  0  0  0
  -11.4843   16.7752  -28.5356 N   0  0  0  0  0  0  0  0  0  0  0  0
  -10.5319   17.5175  -29.3210 C   0  0  0  0  0  0  0  0  0  0  0  0
   -9.7713   18.5307  -28.7904 C   0  0  0  0  0  0  0  0  0  0  0  0
   -8.8859   19.2661  -29.5629 C   0  0  0  0  0  0  0  0  0  0  0  0
   -8.7686   18.9624  -30.9207 C   0  0  0  0  0  0  0  0  0  0  0  0
   -9.5304   17.9419  -31.4683 C   0  0  0  0  0  0  0  0  0  0  0  0
   -9.3874   17.6773  -32.8110 F   0  0  0  0  0  0  0  0  0  0  0  0
  -10.3993   17.2299  -30.6783 C   0  0  0  0  0  0  0  0  0  0  0  0
  -12.4580   14.5931  -28.0643 C   0  0  0  0  0  0  0  0  0  0  0  0
  -13.4304   15.1081  -27.2356 C   0  0  0  0  0  0  0  0  0  0  0  0
  -14.3347   14.2558  -26.6128 C   0  0  0  0  0  0  0  0  0  0  0  0
  -15.3217   14.7150  -25.7787 O   0  0  0  0  0  0  0  0  0  0  0  0
  -15.8664   16.0113  -25.8248 C   0  0  0  0  0  0  0  0  0  0  0  0
  -16.9803   16.2315  -24.8371 C   0  0  0  0  0  0  0  0  0  0  0  0
  1  2  1  0
  2  3  1  0
  3  4  1  0
  4  5  2  0
  5  6  1  0
  6  7  2  0
  7  8  1  0
  8  9  2  0
  9 10  1  0
 10 11  1  0
 11 12  1  0
 12 13  2  0
 13 14  1  0
 14 15  2  0
 15 16  1  0
 16 17  1  0
 16 18  2  0
 10 19  2  0
 19 20  1  0
 20 21  2  0
 21 22  1  0
 22 23  1  0
 23 24  1  0
 21  4  1  0
 19  6  1  0
 18 12  1  0
M  END
$$$$
CHEMBL1204261_diffdock_3
     RDKit          3D

 24 26  0  0  0  0  0  0  0  0999 V2000
  -16.3029   10.0458  -25.8980 C   0  0  0  0  0  0  0  0  0  0  0  0
  -15.1928   10.7334  -26.6339 C   0  0  0  0  0  0  0  0  0  0  0  0
  -15.2204   12.1261  -26.4481 O   0  0  0  0  0  0  0  0  0  0  0  0
  -14.2948   13.0143  -26.9772 C   0  0  0  0  0  0  0  0  0  0  0  0
  -13.3175   12.5180  -27.8021 C   0  0  0  0  0  0  0  0  0  0  0  0
  -12.3944   13.4215  -28.3258 C   0  0  0  0  0  0  0  0  0  0  0  0
  -11.4356   12.8951  -29.1296 N   0  0  0  0  0  0  0  0  0  0  0  0
  -10.5155   13.7347  -29.6454 C   0  0  0  0  0  0  0  0  0  0  0  0
  -10.5516   15.0348  -29.3722 N   0  0  0  0  0  0  0  0  0  0  0  0
  -11.5141   15.5774  -28.5644 C   0  0  0  0  0  0  0  0  0  0  0  0
  -11.4677   16.9593  -28.3019 N   0  0  0  0  0  0  0  0  0  0  0  0
  -10.4548   17.7363  -28.9692 C   0  0  0  0  0  0  0  0  0  0  0  0
   -9.7457   18.7243  -28.3307 C   0  0  0  0  0  0  0  0  0  0  0  0
   -8.8007   19.4938  -28.9912 C   0  0  0  0  0  0  0  0  0  0  0  0
   -8.5674   19.2519  -30.3465 C   0  0  0  0  0  0  0  0  0  0  0  0
   -9.2762   18.2574  -31.0023 C   0  0  0  0  0  0  0  0  0  0  0  0
   -9.0188   18.0539  -32.3386 F   0  0  0  0  0  0  0  0  0  0  0  0
  -10.2064   17.5105  -30.3220 C   0  0  0  0  0  0  0  0  0  0  0  0
  -12.4752   14.7607  -28.0147 C   0  0  0  0  0  0  0  0  0  0  0  0
  -13.4692   15.2277  -27.1832 C   0  0  0  0  0  0  0  0  0  0  0  0
  -14.4006   14.3443  -26.6501 C   0  0  0  0  0  0  0  0  0  0  0  0
  -15.4099   14.7554  -25.8176 O   0  0  0  0  0  0  0  0  0  0  0  0
  -15.6932   16.0986  -25.5097 C   0  0  0  0  0  0  0  0  0  0  0  0
  -17.1434   16.3514  -25.1972 C   0  0  0  0  0  0  0  0  0  0  0  0
  1  2  1  0
  2  3  1  0
  3  4  1  0
  4  5  2  0
  5  6  1  0
  6  7  2  0
  7  8  1  0
  8  9  2  0
  9 10  1  0
 10 11  1  0
 11 12  1  0
 12 13  2  0
 13 14  1  0
 14 15  2  0
 15 16  1  0
 16 17  1  0
 16 18  2  0
 10 19  2  0
 19 20  1  0
 20 21  2  0
 21 22  1  0
 22 23  1  0
 23 24  1  0
 21  4  1  0
 19  6  1  0
 18 12  1  0
M  END
$$$$
CHEMBL1204261_diffdock_4
     RDKit          3D

 24 26  0  0  0  0  0  0  0  0999 V2000
  -16.2345    9.9540  -25.8146 C   0  0  0  0  0  0  0  0  0  0  0  0
  -15.0868   10.5615  -26.5632 C   0  0  0  0  0  0  0  0  0  0  0  0
  -15.0400   11.9580  -26.4140 O   0  0  0  0  0  0  0  0  0  0  0  0
  -14.0776   12.7832  -26.9781 C   0  0  0  0  0  0  0  0  0  0  0  0
  -13.0548   12.1999  -27.6820 C   0  0  0  0  0  0  0  0  0  0  0  0
  -12.0950   13.0409  -28.2426 C   0  0  0  0  0  0  0  0  0  0  0  0
  -11.0922   12.4300  -28.9235 N   0  0  0  0  0  0  0  0  0  0  0  0
  -10.1364   13.2083  -29.4695 C   0  0  0  0  0  0  0  0  0  0  0  0
  -10.1802   14.5305  -29.3419 N   0  0  0  0  0  0  0  0  0  0  0  0
  -11.1869   15.1578  -28.6590 C   0  0  0  0  0  0  0  0  0  0  0  0
  -11.1472   16.5602  -28.5460 N   0  0  0  0  0  0  0  0  0  0  0  0
  -10.1293   17.2651  -29.2820 C   0  0  0  0  0  0  0  0  0  0  0  0
   -9.8616   17.0022  -30.6034 C   0  0  0  0  0  0  0  0  0  0  0  0
   -8.8534   17.6578  -31.2929 C   0  0  0  0  0  0  0  0  0  0  0  0
   -8.0909   18.6130  -30.6177 C   0  0  0  0  0  0  0  0  0  0  0  0
   -8.3513   18.8877  -29.2841 C   0  0  0  0  0  0  0  0  0  0  0  0
   -7.5743   19.8331  -28.6550 F   0  0  0  0  0  0  0  0  0  0  0  0
   -9.3570   18.2226  -28.6268 C   0  0  0  0  0  0  0  0  0  0  0  0
  -12.1856   14.4060  -28.0844 C   0  0  0  0  0  0  0  0  0  0  0  0
  -13.2257   14.9609  -27.3718 C   0  0  0  0  0  0  0  0  0  0  0  0
  -14.1942   14.1409  -26.8046 C   0  0  0  0  0  0  0  0  0  0  0  0
  -15.2499   14.6403  -26.0858 O   0  0  0  0  0  0  0  0  0  0  0  0
  -15.5003   16.0097  -25.8824 C   0  0  0  0  0  0  0  0  0  0  0  0
  -16.0312   16.3272  -24.5105 C   0  0  0  0  0  0  0  0  0  0  0  0
  1  2  1  0
  2  3  1  0
  3  4  1  0
  4  5  2  0
  5  6  1  0
  6  7  2  0
  7  8  1  0
  8  9  2  0
  9 10  1  0
 10 11  1  0
 11 12  1  0
 12 13  2  0
 13 14  1  0
 14 15  2  0
 15 16  1  0
 16 17  1  0
 16 18  2  0
 10 19  2  0
 19 20  1  0
 20 21  2  0
 21 22  1  0
 22 23  1  0
 23 24  1  0
 21  4  1  0
 19  6  1  0
 18 12  1  0
M  END
$$$$
CHEMBL1204261_diffdock_5
     RDKit          3D

 24 26  0  0  0  0  0  0  0  0999 V2000
  -16.1856    9.6531  -26.5835 C   0  0  0  0  0  0  0  0  0  0  0  0
  -15.3889   10.5422  -27.4898 C   0  0  0  0  0  0  0  0  0  0  0  0
  -15.1464   11.8008  -26.9138 O   0  0  0  0  0  0  0  0  0  0  0  0
  -14.3208   12.7749  -27.4571 C   0  0  0  0  0  0  0  0  0  0  0  0
  -13.2800   12.3719  -28.2547 C   0  0  0  0  0  0  0  0  0  0  0  0
  -12.4586   13.3609  -28.7931 C   0  0  0  0  0  0  0  0  0  0  0  0
  -11.4331   12.9265  -29.5690 N   0  0  0  0  0  0  0  0  0  0  0  0
  -10.6074   13.8520  -30.0976 C   0  0  0  0  0  0  0  0  0  0  0  0
  -10.7969   15.1463  -29.8631 N   0  0  0  0  0  0  0  0  0  0  0  0
  -11.8281   15.5964  -29.0837 C   0  0  0  0  0  0  0  0  0  0  0  0
  -11.9449   16.9813  -28.8614 N   0  0  0  0  0  0  0  0  0  0  0  0
  -10.9656   17.8445  -29.4703 C   0  0  0  0  0  0  0  0  0  0  0  0
  -10.3386   17.5283  -30.6507 C   0  0  0  0  0  0  0  0  0  0  0  0
   -9.3685   18.3462  -31.2090 C   0  0  0  0  0  0  0  0  0  0  0  0
   -9.0233   19.5256  -30.5461 C   0  0  0  0  0  0  0  0  0  0  0  0
   -9.6490   19.8563  -29.3542 C   0  0  0  0  0  0  0  0  0  0  0  0
   -9.2770   21.0254  -28.7312 F   0  0  0  0  0  0  0  0  0  0  0  0
  -10.6069   19.0266  -28.8249 C   0  0  0  0  0  0  0  0  0  0  0  0
  -12.6976   14.6899  -28.5224 C   0  0  0  0  0  0  0  0  0  0  0  0
  -13.7517   15.0621  -27.7175 C   0  0  0  0  0  0  0  0  0  0  0  0
  -14.5838   14.0923  -27.1704 C   0  0  0  0  0  0  0  0  0  0  0  0
  -15.6467   14.4072  -26.3631 O   0  0  0  0  0  0  0  0  0  0  0  0
  -15.7360   15.5722  -25.5795 C   0  0  0  0  0  0  0  0  0  0  0  0
  -17.0320   15.6916  -24.8240 C   0  0  0  0  0  0  0  0  0  0  0  0
  1  2  1  0
  2  3  1  0
  3  4  1  0
  4  5  2  0
  5  6  1  0
  6  7  2  0
  7  8  1  0
  8  9  2  0
  9 10  1  0
 10 11  1  0
 11 12  1  0
 12 13  2  0
 13 14  1  0
 14 15  2  0
 15 16  1  0
 16 17  1  0
 16 18  2  0
 10 19  2  0
 19 20  1  0
 20 21  2  0
 21 22  1  0
 22 23  1  0
 23 24  1  0
 21  4  1  0
 19  6  1  0
 18 12  1  0
M  END
$$$$
CHEMBL1204261_diffdock_6
     RDKit          3D

 24 26  0  0  0  0  0  0  0  0999 V2000
  -16.1271   10.6648  -25.6798 C   0  0  0  0  0  0  0  0  0  0  0  0
  -15.2535   11.8822  -25.7197 C   0  0  0  0  0  0  0  0  0  0  0  0
  -15.3465   12.5579  -26.9483 O   0  0  0  0  0  0  0  0  0  0  0  0
  -14.3714   13.3985  -27.4659 C   0  0  0  0  0  0  0  0  0  0  0  0
  -13.4353   12.8620  -28.3131 C   0  0  0  0  0  0  0  0  0  0  0  0
  -12.4616   13.7179  -28.8250 C   0  0  0  0  0  0  0  0  0  0  0  0
  -11.5459   13.1519  -29.6517 N   0  0  0  0  0  0  0  0  0  0  0  0
  -10.5791   13.9440  -30.1571 C   0  0  0  0  0  0  0  0  0  0  0  0
  -10.5298   15.2367  -29.8522 N   0  0  0  0  0  0  0  0  0  0  0  0
  -11.4483   15.8189  -29.0210 C   0  0  0  0  0  0  0  0  0  0  0  0
  -11.3116   17.1882  -28.7258 N   0  0  0  0  0  0  0  0  0  0  0  0
  -10.4872   17.9846  -29.5982 C   0  0  0  0  0  0  0  0  0  0  0  0
   -9.6675   18.9815  -29.1283 C   0  0  0  0  0  0  0  0  0  0  0  0
   -8.9075   19.7693  -29.9788 C   0  0  0  0  0  0  0  0  0  0  0  0
   -8.9823   19.5369  -31.3536 C   0  0  0  0  0  0  0  0  0  0  0  0
   -9.8055   18.5335  -31.8405 C   0  0  0  0  0  0  0  0  0  0  0  0
   -9.8531   18.3399  -33.2020 F   0  0  0  0  0  0  0  0  0  0  0  0
  -10.5469   17.7685  -30.9738 C   0  0  0  0  0  0  0  0  0  0  0  0
  -12.4542   15.0513  -28.4807 C   0  0  0  0  0  0  0  0  0  0  0  0
  -13.4086   15.5596  -27.6274 C   0  0  0  0  0  0  0  0  0  0  0  0
  -14.3893   14.7240  -27.1056 C   0  0  0  0  0  0  0  0  0  0  0  0
  -15.3625   15.1775  -26.2524 O   0  0  0  0  0  0  0  0  0  0  0  0
  -15.8543   16.4954  -26.2311 C   0  0  0  0  0  0  0  0  0  0  0  0
  -16.6424   16.8238  -24.9918 C   0  0  0  0  0  0  0  0  0  0  0  0
  1  2  1  0
  2  3  1  0
  3  4  1  0
  4  5  2  0
  5  6  1  0
  6  7  2  0
  7  8  1  0
  8  9  2  0
  9 10  1  0
 10 11  1  0
 11 12  1  0
 12 13  2  0
 13 14  1  0
 14 15  2  0
 15 16  1  0
 16 17  1  0
 16 18  2  0
 10 19  2  0
 19 20  1  0
 20 21  2  0
 21 22  1  0
 22 23  1  0
 23 24  1  0
 21  4  1  0
 19  6  1  0
 18 12  1  0
M  END
$$$$
CHEMBL1204261_diffdock_7
     RDKit          3D

 24 26  0  0  0  0  0  0  0  0999 V2000
  -17.0989   10.6756  -26.2685 C   0  0  0  0  0  0  0  0  0  0  0  0
  -16.0682   11.3485  -27.1238 C   0  0  0  0  0  0  0  0  0  0  0  0
  -15.7987   12.6584  -26.6925 O   0  0  0  0  0  0  0  0  0  0  0  0
  -14.8265   13.4868  -27.2348 C   0  0  0  0  0  0  0  0  0  0  0  0
  -13.9042   12.9336  -28.0863 C   0  0  0  0  0  0  0  0  0  0  0  0
  -12.9332   13.7773  -28.6231 C   0  0  0  0  0  0  0  0  0  0  0  0
  -12.0310   13.1950  -29.4533 N   0  0  0  0  0  0  0  0  0  0  0  0
  -11.0672   13.9751  -29.9827 C   0  0  0  0  0  0  0  0  0  0  0  0
  -11.0079   15.2717  -29.6971 N   0  0  0  0  0  0  0  0  0  0  0  0
  -11.9128   15.8703  -28.8626 C   0  0  0  0  0  0  0  0  0  0  0  0
  -11.7658   17.2430  -28.5890 N   0  0  0  0  0  0  0  0  0  0  0  0
  -10.7722   17.9739  -29.3331 C   0  0  0  0  0  0  0  0  0  0  0  0
   -9.9824   18.9379  -28.7556 C   0  0  0  0  0  0  0  0  0  0  0  0
   -9.0562   19.6641  -29.4881 C   0  0  0  0  0  0  0  0  0  0  0  0
   -8.9275   19.4024  -30.8537 C   0  0  0  0  0  0  0  0  0  0  0  0
   -9.7186   18.4317  -31.4483 C   0  0  0  0  0  0  0  0  0  0  0  0
   -9.5629   18.2076  -32.7970 F   0  0  0  0  0  0  0  0  0  0  0  0
  -10.6276   17.7278  -30.6973 C   0  0  0  0  0  0  0  0  0  0  0  0
  -12.9150   15.1155  -28.2982 C   0  0  0  0  0  0  0  0  0  0  0  0
  -13.8559   15.6407  -27.4400 C   0  0  0  0  0  0  0  0  0  0  0  0
  -14.8335   14.8175  -26.8935 C   0  0  0  0  0  0  0  0  0  0  0  0
  -15.7934   15.2879  -26.0344 O   0  0  0  0  0  0  0  0  0  0  0  0
  -15.8490   16.6053  -25.5440 C   0  0  0  0  0  0  0  0  0  0  0  0
  -16.8363   16.7892  -24.4232 C   0  0  0  0  0  0  0  0  0  0  0  0
  1  2  1  0
  2  3  1  0
  3  4  1  0
  4  5  2  0
  5  6  1  0
  6  7  2  0
  7  8  1  0
  8  9  2  0
  9 10  1  0
 10 11  1  0
 11 12  1  0
 12 13  2  0
 13 14  1  0
 14 15  2  0
 15 16  1  0
 16 17  1  0
 16 18  2  0
 10 19  2  0
 19 20  1  0
 20 21  2  0
 21 22  1  0
 22 23  1  0
 23 24  1  0
 21  4  1  0
 19  6  1  0
 18 12  1  0
M  END
$$$$
CHEMBL1204261_diffdock_8
     RDKit          3D

 24 26  0  0  0  0  0  0  0  0999 V2000
  -16.7000   10.3396  -26.3944 C   0  0  0  0  0  0  0  0  0  0  0  0
  -15.6820   11.0916  -27.1974 C   0  0  0  0  0  0  0  0  0  0  0  0
  -15.5897   12.4375  -26.8041 O   0  0  0  0  0  0  0  0  0  0  0  0
  -14.6744   13.3496  -27.3098 C   0  0  0  0  0  0  0  0  0  0  0  0
  -13.6407   12.8743  -28.0762 C   0  0  0  0  0  0  0  0  0  0  0  0
  -12.7286   13.8016  -28.5770 C   0  0  0  0  0  0  0  0  0  0  0  0
  -11.7133   13.2959  -29.3225 N   0  0  0  0  0  0  0  0  0  0  0  0
  -10.8022   14.1595  -29.8141 C   0  0  0  0  0  0  0  0  0  0  0  0
  -10.9005   15.4628  -29.5733 N   0  0  0  0  0  0  0  0  0  0  0  0
  -11.9205   15.9846  -28.8243 C   0  0  0  0  0  0  0  0  0  0  0  0
  -11.9391   17.3726  -28.5922 N   0  0  0  0  0  0  0  0  0  0  0  0
  -10.9715   18.1830  -29.2865 C   0  0  0  0  0  0  0  0  0  0  0  0
  -10.4261   19.3149  -28.7317 C   0  0  0  0  0  0  0  0  0  0  0  0
   -9.5255   20.1107  -29.4225 C   0  0  0  0  0  0  0  0  0  0  0  0
   -9.1661   19.7445  -30.7212 C   0  0  0  0  0  0  0  0  0  0  0  0
   -9.7092   18.6041  -31.2924 C   0  0  0  0  0  0  0  0  0  0  0  0
   -9.3316   18.2809  -32.5754 F   0  0  0  0  0  0  0  0  0  0  0  0
  -10.5991   17.8348  -30.5837 C   0  0  0  0  0  0  0  0  0  0  0  0
  -12.8749   15.1430  -28.3013 C   0  0  0  0  0  0  0  0  0  0  0  0
  -13.9245   15.5886  -27.5284 C   0  0  0  0  0  0  0  0  0  0  0  0
  -14.8461   14.6812  -27.0190 C   0  0  0  0  0  0  0  0  0  0  0  0
  -15.9088   15.0704  -26.2445 O   0  0  0  0  0  0  0  0  0  0  0  0
  -15.9664   16.2714  -25.5141 C   0  0  0  0  0  0  0  0  0  0  0  0
  -17.2149   16.4127  -24.6857 C   0  0  0  0  0  0  0  0  0  0  0  0
  1  2  1  0
  2  3  1  0
  3  4  1  0
  4  5  2  0
  5  6  1  0
  6  7  2  0
  7  8  1  0
  8  9  2  0
  9 10  1  0
 10 11  1  0
 11 12  1  0
 12 13  2  0
 13 14  1  0
 14 15  2  0
 15 16  1  0
 16 17  1  0
 16 18  2  0
 10 19  2  0
 19 20  1  0
 20 21  2  0
 21 22  1  0
 22 23  1  0
 23 24  1  0
 21  4  1  0
 19  6  1  0
 18 12  1  0
M  END
$$$$
CHEMBL1204261_diffdock_9
     RDKit          3D

 24 26  0  0  0  0  0  0  0  0999 V2000
   -6.7751   15.0485  -32.0760 C   0  0  0  0  0  0  0  0  0  0  0  0
   -8.0864   14.6579  -31.4639 C   0  0  0  0  0  0  0  0  0  0  0  0
   -8.7328   15.7501  -30.8605 O   0  0  0  0  0  0  0  0  0  0  0  0
   -9.9352   15.6772  -30.1717 C   0  0  0  0  0  0  0  0  0  0  0  0
  -10.5086   14.4434  -29.9964 C   0  0  0  0  0  0  0  0  0  0  0  0
  -11.7164   14.3853  -29.3031 C   0  0  0  0  0  0  0  0  0  0  0  0
  -12.2605   13.1504  -29.1567 N   0  0  0  0  0  0  0  0  0  0  0  0
  -13.4358   13.0535  -28.5034 C   0  0  0  0  0  0  0  0  0  0  0  0
  -14.0373   14.1358  -28.0205 N   0  0  0  0  0  0  0  0  0  0  0  0
  -13.4977   15.3859  -28.1608 C   0  0  0  0  0  0  0  0  0  0  0  0
  -14.2098   16.4846  -27.6446 N   0  0  0  0  0  0  0  0  0  0  0  0
  -14.9850   16.2807  -26.4477 C   0  0  0  0  0  0  0  0  0  0  0  0
  -15.7912   17.2584  -25.9178 C   0  0  0  0  0  0  0  0  0  0  0  0
  -16.5029   17.0668  -24.7438 C   0  0  0  0  0  0  0  0  0  0  0  0
  -16.3925   15.8405  -24.0852 C   0  0  0  0  0  0  0  0  0  0  0  0
  -15.5824   14.8455  -24.6100 C   0  0  0  0  0  0  0  0  0  0  0  0
  -15.4985   13.6534  -23.9280 F   0  0  0  0  0  0  0  0  0  0  0  0
  -14.8892   15.0637  -25.7752 C   0  0  0  0  0  0  0  0  0  0  0  0
  -12.2993   15.5355  -28.8197 C   0  0  0  0  0  0  0  0  0  0  0  0
  -11.6978   16.7598  -29.0122 C   0  0  0  0  0  0  0  0  0  0  0  0
  -10.4927   16.8408  -29.7003 C   0  0  0  0  0  0  0  0  0  0  0  0
   -9.8514   18.0328  -29.9200 O   0  0  0  0  0  0  0  0  0  0  0  0
  -10.4958   19.2327  -30.2724 C   0  0  0  0  0  0  0  0  0  0  0  0
  -10.3677   20.3128  -29.2323 C   0  0  0  0  0  0  0  0  0  0  0  0
  1  2  1  0
  2  3  1  0
  3  4  1  0
  4  5  2  0
  5  6  1  0
  6  7  2  0
  7  8  1  0
  8  9  2  0
  9 10  1  0
 10 11  1  0
 11 12  1  0
 12 13  2  0
 13 14  1  0
 14 15  2  0
 15 16  1  0
 16 17  1  0
 16 18  2  0
 10 19  2  0
 19 20  1  0
 20 21  2  0
 21 22  1  0
 22 23  1  0
 23 24  1  0
 21  4  1  0
 19  6  1  0
 18 12  1  0
M  END
$$$$
CHEMBL1204261_diffdock_10
     RDKit          3D

 24 26  0  0  0  0  0  0  0  0999 V2000
  -20.6810   64.3895   82.2254 C   0  0  0  0  0  0  0  0  0  0  0  0
  -21.0894   63.5591   83.4046 C   0  0  0  0  0  0  0  0  0  0  0  0
  -20.3980   62.3367   83.4534 O   0  0  0  0  0  0  0  0  0  0  0  0
  -20.6674   61.3093   84.3464 C   0  0  0  0  0  0  0  0  0  0  0  0
  -21.9782   60.9763   84.5758 C   0  0  0  0  0  0  0  0  0  0  0  0
  -22.2339   59.9428   85.4755 C   0  0  0  0  0  0  0  0  0  0  0  0
  -23.5416   59.6464   85.6863 N   0  0  0  0  0  0  0  0  0  0  0  0
  -23.8311   58.6614   86.5601 C   0  0  0  0  0  0  0  0  0  0  0  0
  -22.8629   58.0054   87.1914 N   0  0  0  0  0  0  0  0  0  0  0  0
  -21.5409   58.2944   86.9860 C   0  0  0  0  0  0  0  0  0  0  0  0
  -20.5764   57.5722   87.7133 N   0  0  0  0  0  0  0  0  0  0  0  0
  -21.0432   56.5803   88.6479 C   0  0  0  0  0  0  0  0  0  0  0  0
  -20.1844   55.8103   89.3937 C   0  0  0  0  0  0  0  0  0  0  0  0
  -20.6418   54.8308   90.2614 C   0  0  0  0  0  0  0  0  0  0  0  0
  -22.0183   54.6261   90.3759 C   0  0  0  0  0  0  0  0  0  0  0  0
  -22.8955   55.3969   89.6290 C   0  0  0  0  0  0  0  0  0  0  0  0
  -24.2438   55.1607   89.7687 F   0  0  0  0  0  0  0  0  0  0  0  0
  -22.4134   56.3605   88.7775 C   0  0  0  0  0  0  0  0  0  0  0  0
  -21.1955   59.2914   86.1032 C   0  0  0  0  0  0  0  0  0  0  0  0
  -19.8895   59.6496   85.8508 C   0  0  0  0  0  0  0  0  0  0  0  0
  -19.6116   60.6770   84.9569 C   0  0  0  0  0  0  0  0  0  0  0  0
  -18.3307   61.0738   84.6692 O   0  0  0  0  0  0  0  0  0  0  0  0
  -17.2046   60.2320   84.7184 C   0  0  0  0  0  0  0  0  0  0  0  0
  -15.9194   60.9620   85.0019 C   0  0  0  0  0  0  0  0  0  0  0  0
  1  2  1  0
  2  3  1  0
  3  4  1  0
  4  5  2  0
  5  6  1  0
  6  7  2  0
  7  8  1  0
  8  9  2  0
  9 10  1  0
 10 11  1  0
 11 12  1  0
 12 13  2  0
 13 14  1  0
 14 15  2  0
 15 16  1  0
 16 17  1  0
 16 18  2  0
 10 19  2  0
 19 20  1  0
 20 21  2  0
 21 22  1  0
 22 23  1  0
 23 24  1  0
 21  4  1  0
 19  6  1  0
 18 12  1  0
M  END
$$$$
CHEMBL4759072_diffdock_1
     RDKit          3D

 38 41  0  0  0  0  0  0  0  0999 V2000
  -15.7152   18.9376  -24.7776 C   0  0  0  0  0  0  0  0  0  0  0  0
  -16.0715   17.8384  -25.4053 C   0  0  0  0  0  0  0  0  0  0  0  0
  -15.0917   17.1192  -26.1905 C   0  0  0  0  0  0  0  0  0  0  0  0
  -14.3801   17.7505  -27.0074 O   0  0  0  0  0  0  0  0  0  0  0  0
  -14.8768   15.7180  -26.0968 N   0  0  0  0  0  0  0  0  0  0  0  0
  -13.9972   15.0129  -26.9582 C   0  0  0  0  0  0  0  0  0  0  0  0
  -12.9069   15.6215  -27.5875 C   0  0  0  0  0  0  0  0  0  0  0  0
  -12.0519   14.9337  -28.4240 C   0  0  0  0  0  0  0  0  0  0  0  0
  -10.9720   15.5273  -29.0516 C   0  0  0  0  0  0  0  0  0  0  0  0
  -10.6856   16.8968  -28.8309 N   0  0  0  0  0  0  0  0  0  0  0  0
   -9.7308   17.6443  -29.5457 C   0  0  0  0  0  0  0  0  0  0  0  0
   -9.1199   18.7575  -29.0520 C   0  0  0  0  0  0  0  0  0  0  0  0
   -8.1910   19.4956  -29.7810 C   0  0  0  0  0  0  0  0  0  0  0  0
   -7.8831   19.0785  -31.0468 C   0  0  0  0  0  0  0  0  0  0  0  0
   -6.9856   19.7431  -31.8262 F   0  0  0  0  0  0  0  0  0  0  0  0
   -8.4839   17.9646  -31.5602 C   0  0  0  0  0  0  0  0  0  0  0  0
   -8.1258   17.3813  -33.1830 Cl  0  0  0  0  0  0  0  0  0  0  0  0
   -9.3913   17.2598  -30.8239 C   0  0  0  0  0  0  0  0  0  0  0  0
  -10.1816   14.7652  -29.8641 N   0  0  0  0  0  0  0  0  0  0  0  0
  -10.3957   13.4626  -30.0892 C   0  0  0  0  0  0  0  0  0  0  0  0
  -11.4408   12.8689  -29.4873 N   0  0  0  0  0  0  0  0  0  0  0  0
  -12.2576   13.5867  -28.6682 C   0  0  0  0  0  0  0  0  0  0  0  0
  -13.3301   12.9799  -28.0516 C   0  0  0  0  0  0  0  0  0  0  0  0
  -14.1923   13.6744  -27.2077 C   0  0  0  0  0  0  0  0  0  0  0  0
  -15.2733   13.0458  -26.5915 O   0  0  0  0  0  0  0  0  0  0  0  0
  -15.6633   11.7724  -27.0862 C   0  0  0  0  0  0  0  0  0  0  0  0
  -16.9160   11.2963  -26.4882 C   0  0  0  0  0  0  0  0  0  0  0  0
  -17.0692   10.2487  -25.6064 C   0  0  0  0  0  0  0  0  0  0  0  0
  -18.3685   10.1218  -25.2868 N   0  0  0  0  0  0  0  0  0  0  0  0
  -19.0110    9.1593  -24.3931 C   0  0  0  0  0  0  0  0  0  0  0  0
  -18.5133    9.2808  -22.9940 C   0  0  0  0  0  0  0  0  0  0  0  0
  -19.1950    8.4158  -21.9886 C   0  0  0  0  0  0  0  0  0  0  0  0
  -18.3744    7.3366  -21.4359 C   0  0  0  0  0  0  0  0  0  0  0  0
  -17.4030    7.5335  -20.6662 O   0  0  0  0  0  0  0  0  0  0  0  0
  -18.6468    5.9707  -21.7546 N   0  0  0  0  0  0  0  0  0  0  0  0
  -17.8333    4.9640  -21.3766 O   0  0  0  0  0  0  0  0  0  0  0  0
  -19.0317   11.0719  -25.9532 N   0  0  0  0  0  0  0  0  0  0  0  0
  -18.1745   11.7737  -26.6692 N   0  0  0  0  0  0  0  0  0  0  0  0
  1  2  2  0
  2  3  1  0
  3  4  2  0
  3  5  1  0
  5  6  1  0
  6  7  2  0
  7  8  1  0
  8  9  2  0
  9 10  1  0
 10 11  1  0
 11 12  2  0
 12 13  1  0
 13 14  2  0
 14 15  1  0
 14 16  1  0
 16 17  1  0
 16 18  2  0
  9 19  1  0
 19 20  2  0
 20 21  1  0
 21 22  2  0
 22 23  1  0
 23 24  2  0
 24 25  1  0
 25 26  1  0
 26 27  1  0
 27 28  2  0
 28 29  1  0
 29 30  1  0
 30 31  1  0
 31 32  1  0
 32 33  1  0
 33 34  2  0
 33 35  1  0
 35 36  1  0
 29 37  1  0
 37 38  2  0
 24  6  1  0
 38 27  1  0
 22  8  1  0
 18 11  1  0
M  END
$$$$
CHEMBL4759072_diffdock_2
     RDKit          3D

 38 41  0  0  0  0  0  0  0  0999 V2000
  -16.6636   18.0920  -24.7083 C   0  0  0  0  0  0  0  0  0  0  0  0
  -15.4519   17.5857  -24.7777 C   0  0  0  0  0  0  0  0  0  0  0  0
  -15.0098   16.9669  -26.0087 C   0  0  0  0  0  0  0  0  0  0  0  0
  -14.5973   17.6930  -26.9441 O   0  0  0  0  0  0  0  0  0  0  0  0
  -15.0114   15.5642  -26.2341 N   0  0  0  0  0  0  0  0  0  0  0  0
  -14.0595   14.9146  -27.0616 C   0  0  0  0  0  0  0  0  0  0  0  0
  -13.1219   15.6140  -27.8276 C   0  0  0  0  0  0  0  0  0  0  0  0
  -12.1962   14.9803  -28.6310 C   0  0  0  0  0  0  0  0  0  0  0  0
  -11.2660   15.6634  -29.3928 C   0  0  0  0  0  0  0  0  0  0  0  0
  -11.2161   17.0784  -29.3540 N   0  0  0  0  0  0  0  0  0  0  0  0
  -10.3129   17.8719  -30.0862 C   0  0  0  0  0  0  0  0  0  0  0  0
   -9.7006   18.9795  -29.5818 C   0  0  0  0  0  0  0  0  0  0  0  0
   -8.8238   19.7635  -30.3274 C   0  0  0  0  0  0  0  0  0  0  0  0
   -8.5707   19.3991  -31.6213 C   0  0  0  0  0  0  0  0  0  0  0  0
   -7.7264   20.1108  -32.4183 F   0  0  0  0  0  0  0  0  0  0  0  0
   -9.1740   18.2917  -32.1459 C   0  0  0  0  0  0  0  0  0  0  0  0
   -8.8851   17.7755  -33.8048 Cl  0  0  0  0  0  0  0  0  0  0  0  0
  -10.0296   17.5413  -31.3928 C   0  0  0  0  0  0  0  0  0  0  0  0
  -10.3898   14.9492  -30.1594 N   0  0  0  0  0  0  0  0  0  0  0  0
  -10.3807   13.6112  -30.2151 C   0  0  0  0  0  0  0  0  0  0  0  0
  -11.2777   12.9305  -29.4809 N   0  0  0  0  0  0  0  0  0  0  0  0
  -12.1718   13.5979  -28.7009 C   0  0  0  0  0  0  0  0  0  0  0  0
  -13.0929   12.9016  -27.9488 C   0  0  0  0  0  0  0  0  0  0  0  0
  -14.0264   13.5416  -27.1386 C   0  0  0  0  0  0  0  0  0  0  0  0
  -14.9520   12.8226  -26.3837 O   0  0  0  0  0  0  0  0  0  0  0  0
  -15.4765   11.6292  -26.9486 C   0  0  0  0  0  0  0  0  0  0  0  0
  -16.8304   11.3280  -26.4694 C   0  0  0  0  0  0  0  0  0  0  0  0
  -17.1777   10.7766  -25.2554 C   0  0  0  0  0  0  0  0  0  0  0  0
  -18.5145   10.6546  -25.1876 N   0  0  0  0  0  0  0  0  0  0  0  0
  -19.3408   10.1265  -24.1030 C   0  0  0  0  0  0  0  0  0  0  0  0
  -18.8480   10.5612  -22.7658 C   0  0  0  0  0  0  0  0  0  0  0  0
  -19.6793   10.1379  -21.6024 C   0  0  0  0  0  0  0  0  0  0  0  0
  -19.1217    9.0461  -20.8020 C   0  0  0  0  0  0  0  0  0  0  0  0
  -18.2157    9.2090  -19.9491 O   0  0  0  0  0  0  0  0  0  0  0  0
  -19.5945    7.7068  -20.9573 N   0  0  0  0  0  0  0  0  0  0  0  0
  -19.0183    6.6598  -20.3329 O   0  0  0  0  0  0  0  0  0  0  0  0
  -19.0104   11.1201  -26.3382 N   0  0  0  0  0  0  0  0  0  0  0  0
  -18.0150   11.5220  -27.1047 N   0  0  0  0  0  0  0  0  0  0  0  0
  1  2  2  0
  2  3  1  0
  3  4  2  0
  3  5  1  0
  5  6  1  0
  6  7  2  0
  7  8  1  0
  8  9  2  0
  9 10  1  0
 10 11  1  0
 11 12  2  0
 12 13  1  0
 13 14  2  0
 14 15  1  0
 14 16  1  0
 16 17  1  0
 16 18  2  0
  9 19  1  0
 19 20  2  0
 20 21  1  0
 21 22  2  0
 22 23  1  0
 23 24  2  0
 24 25  1  0
 25 26  1  0
 26 27  1  0
 27 28  2  0
 28 29  1  0
 29 30  1  0
 30 31  1  0
 31 32  1  0
 32 33  1  0
 33 34  2  0
 33 35  1  0
 35 36  1  0
 29 37  1  0
 37 38  2  0
 24  6  1  0
 38 27  1  0
 22  8  1  0
 18 11  1  0
M  END
$$$$
CHEMBL4759072_diffdock_3
     RDKit          3D

 38 41  0  0  0  0  0  0  0  0999 V2000
  -15.5457   18.8420  -24.9615 C   0  0  0  0  0  0  0  0  0  0  0  0
  -15.6367   17.5354  -25.0801 C   0  0  0  0  0  0  0  0  0  0  0  0
  -14.8547   16.8576  -26.0915 C   0  0  0  0  0  0  0  0  0  0  0  0
  -14.2060   17.5385  -26.9209 O   0  0  0  0  0  0  0  0  0  0  0  0
  -14.7702   15.4445  -26.2110 N   0  0  0  0  0  0  0  0  0  0  0  0
  -13.8574   14.7971  -27.0831 C   0  0  0  0  0  0  0  0  0  0  0  0
  -12.7567   15.4507  -27.6455 C   0  0  0  0  0  0  0  0  0  0  0  0
  -11.8695   14.8189  -28.4926 C   0  0  0  0  0  0  0  0  0  0  0  0
  -10.7789   15.4572  -29.0544 C   0  0  0  0  0  0  0  0  0  0  0  0
  -10.5155   16.8154  -28.7507 N   0  0  0  0  0  0  0  0  0  0  0  0
   -9.6485   17.6496  -29.4813 C   0  0  0  0  0  0  0  0  0  0  0  0
   -8.9417   18.6740  -28.9272 C   0  0  0  0  0  0  0  0  0  0  0  0
   -8.1027   19.5012  -29.6695 C   0  0  0  0  0  0  0  0  0  0  0  0
   -7.9878   19.2686  -31.0126 C   0  0  0  0  0  0  0  0  0  0  0  0
   -7.1891   20.0306  -31.8100 F   0  0  0  0  0  0  0  0  0  0  0  0
   -8.6876   18.2463  -31.5875 C   0  0  0  0  0  0  0  0  0  0  0  0
   -8.5779   17.9006  -33.3110 Cl  0  0  0  0  0  0  0  0  0  0  0  0
   -9.5032   17.4508  -30.8364 C   0  0  0  0  0  0  0  0  0  0  0  0
   -9.9562   14.7492  -29.8835 N   0  0  0  0  0  0  0  0  0  0  0  0
  -10.1480   13.4589  -30.1858 C   0  0  0  0  0  0  0  0  0  0  0  0
  -11.2030   12.8221  -29.6486 N   0  0  0  0  0  0  0  0  0  0  0  0
  -12.0518   13.4853  -28.8162 C   0  0  0  0  0  0  0  0  0  0  0  0
  -13.1346   12.8344  -28.2658 C   0  0  0  0  0  0  0  0  0  0  0  0
  -14.0292   13.4724  -27.4112 C   0  0  0  0  0  0  0  0  0  0  0  0
  -15.1200   12.7997  -26.8627 O   0  0  0  0  0  0  0  0  0  0  0  0
  -14.9131   11.4685  -26.4114 C   0  0  0  0  0  0  0  0  0  0  0  0
  -15.9998   10.9921  -25.5480 C   0  0  0  0  0  0  0  0  0  0  0  0
  -16.3631   11.4943  -24.3175 C   0  0  0  0  0  0  0  0  0  0  0  0
  -17.4043   10.7917  -23.8393 N   0  0  0  0  0  0  0  0  0  0  0  0
  -18.1289   10.9542  -22.5797 C   0  0  0  0  0  0  0  0  0  0  0  0
  -18.3856   12.3881  -22.2664 C   0  0  0  0  0  0  0  0  0  0  0  0
  -19.8202   12.7925  -22.2218 C   0  0  0  0  0  0  0  0  0  0  0  0
  -20.2338   13.4900  -21.0028 C   0  0  0  0  0  0  0  0  0  0  0  0
  -20.5229   14.7107  -20.9708 O   0  0  0  0  0  0  0  0  0  0  0  0
  -20.3307   12.7963  -19.7574 N   0  0  0  0  0  0  0  0  0  0  0  0
  -20.6204   13.4251  -18.6004 O   0  0  0  0  0  0  0  0  0  0  0  0
  -17.6993    9.8579  -24.7491 N   0  0  0  0  0  0  0  0  0  0  0  0
  -16.8684    9.9714  -25.7673 N   0  0  0  0  0  0  0  0  0  0  0  0
  1  2  2  0
  2  3  1  0
  3  4  2  0
  3  5  1  0
  5  6  1  0
  6  7  2  0
  7  8  1  0
  8  9  2  0
  9 10  1  0
 10 11  1  0
 11 12  2  0
 12 13  1  0
 13 14  2  0
 14 15  1  0
 14 16  1  0
 16 17  1  0
 16 18  2  0
  9 19  1  0
 19 20  2  0
 20 21  1  0
 21 22  2  0
 22 23  1  0
 23 24  2  0
 24 25  1  0
 25 26  1  0
 26 27  1  0
 27 28  2  0
 28 29  1  0
 29 30  1  0
 30 31  1  0
 31 32  1  0
 32 33  1  0
 33 34  2  0
 33 35  1  0
 35 36  1  0
 29 37  1  0
 37 38  2  0
 24  6  1  0
 38 27  1  0
 22  8  1  0
 18 11  1  0
M  END
$$$$
CHEMBL4759072_diffdock_4
     RDKit          3D

 38 41  0  0  0  0  0  0  0  0999 V2000
  -17.0036   17.7637  -25.0783 C   0  0  0  0  0  0  0  0  0  0  0  0
  -15.7412   17.4177  -24.9516 C   0  0  0  0  0  0  0  0  0  0  0  0
  -15.0522   16.8195  -26.0747 C   0  0  0  0  0  0  0  0  0  0  0  0
  -14.2801   17.5262  -26.7651 O   0  0  0  0  0  0  0  0  0  0  0  0
  -15.1940   15.4582  -26.4558 N   0  0  0  0  0  0  0  0  0  0  0  0
  -14.2437   14.7796  -27.2616 C   0  0  0  0  0  0  0  0  0  0  0  0
  -13.0920   15.3995  -27.7559 C   0  0  0  0  0  0  0  0  0  0  0  0
  -12.1684   14.7374  -28.5385 C   0  0  0  0  0  0  0  0  0  0  0  0
  -11.0273   15.3423  -29.0328 C   0  0  0  0  0  0  0  0  0  0  0  0
  -10.7488   16.6961  -28.7229 N   0  0  0  0  0  0  0  0  0  0  0  0
   -9.7318   17.4651  -29.3194 C   0  0  0  0  0  0  0  0  0  0  0  0
   -8.8982   18.2858  -28.6212 C   0  0  0  0  0  0  0  0  0  0  0  0
   -7.9093   19.0539  -29.2307 C   0  0  0  0  0  0  0  0  0  0  0  0
   -7.7748   18.9752  -30.5897 C   0  0  0  0  0  0  0  0  0  0  0  0
   -6.8336   19.6928  -31.2633 F   0  0  0  0  0  0  0  0  0  0  0  0
   -8.6003   18.1580  -31.3081 C   0  0  0  0  0  0  0  0  0  0  0  0
   -8.4723   18.0168  -33.0590 Cl  0  0  0  0  0  0  0  0  0  0  0  0
   -9.5615   17.4162  -30.6852 C   0  0  0  0  0  0  0  0  0  0  0  0
  -10.1712   14.6058  -29.8011 N   0  0  0  0  0  0  0  0  0  0  0  0
  -10.3767   13.3180  -30.1054 C   0  0  0  0  0  0  0  0  0  0  0  0
  -11.4806   12.7135  -29.6333 N   0  0  0  0  0  0  0  0  0  0  0  0
  -12.3641   13.4059  -28.8631 C   0  0  0  0  0  0  0  0  0  0  0  0
  -13.4970   12.7881  -28.3796 C   0  0  0  0  0  0  0  0  0  0  0  0
  -14.4283   13.4567  -27.5901 C   0  0  0  0  0  0  0  0  0  0  0  0
  -15.5697   12.8172  -27.1087 O   0  0  0  0  0  0  0  0  0  0  0  0
  -15.4423   11.4622  -26.7013 C   0  0  0  0  0  0  0  0  0  0  0  0
  -16.6735   10.9379  -26.0991 C   0  0  0  0  0  0  0  0  0  0  0  0
  -17.1299   11.1584  -24.8178 C   0  0  0  0  0  0  0  0  0  0  0  0
  -18.2930   10.5085  -24.6412 N   0  0  0  0  0  0  0  0  0  0  0  0
  -19.1465   10.4462  -23.4556 C   0  0  0  0  0  0  0  0  0  0  0  0
  -18.6198    9.4912  -22.4404 C   0  0  0  0  0  0  0  0  0  0  0  0
  -19.3597    9.4512  -21.1463 C   0  0  0  0  0  0  0  0  0  0  0  0
  -19.1020    8.2726  -20.3169 C   0  0  0  0  0  0  0  0  0  0  0  0
  -19.4540    7.1120  -20.6391 O   0  0  0  0  0  0  0  0  0  0  0  0
  -18.4193    8.3897  -19.0672 N   0  0  0  0  0  0  0  0  0  0  0  0
  -18.3989    7.3937  -18.1585 O   0  0  0  0  0  0  0  0  0  0  0  0
  -18.5730    9.8847  -25.7898 N   0  0  0  0  0  0  0  0  0  0  0  0
  -17.6146   10.1357  -26.6606 N   0  0  0  0  0  0  0  0  0  0  0  0
  1  2  2  0
  2  3  1  0
  3  4  2  0
  3  5  1  0
  5  6  1  0
  6  7  2  0
  7  8  1  0
  8  9  2  0
  9 10  1  0
 10 11  1  0
 11 12  2  0
 12 13  1  0
 13 14  2  0
 14 15  1  0
 14 16  1  0
 16 17  1  0
 16 18  2  0
  9 19  1  0
 19 20  2  0
 20 21  1  0
 21 22  2  0
 22 23  1  0
 23 24  2  0
 24 25  1  0
 25 26  1  0
 26 27  1  0
 27 28  2  0
 28 29  1  0
 29 30  1  0
 30 31  1  0
 31 32  1  0
 32 33  1  0
 33 34  2  0
 33 35  1  0
 35 36  1  0
 29 37  1  0
 37 38  2  0
 24  6  1  0
 38 27  1  0
 22  8  1  0
 18 11  1  0
M  END
$$$$
CHEMBL4759072_diffdock_5
     RDKit          3D

 38 41  0  0  0  0  0  0  0  0999 V2000
  -17.2457   18.5071  -24.9556 C   0  0  0  0  0  0  0  0  0  0  0  0
  -16.0374   17.9934  -24.8808 C   0  0  0  0  0  0  0  0  0  0  0  0
  -15.4532   17.3779  -26.0529 C   0  0  0  0  0  0  0  0  0  0  0  0
  -14.8508   18.0970  -26.8850 O   0  0  0  0  0  0  0  0  0  0  0  0
  -15.5170   15.9861  -26.3304 N   0  0  0  0  0  0  0  0  0  0  0  0
  -14.5798   15.3215  -27.1628 C   0  0  0  0  0  0  0  0  0  0  0  0
  -13.5274   15.9880  -27.7979 C   0  0  0  0  0  0  0  0  0  0  0  0
  -12.6162   15.3396  -28.6062 C   0  0  0  0  0  0  0  0  0  0  0  0
  -11.5731   15.9904  -29.2392 C   0  0  0  0  0  0  0  0  0  0  0  0
  -11.3862   17.3822  -29.0541 N   0  0  0  0  0  0  0  0  0  0  0  0
  -10.4718   18.1738  -29.7743 C   0  0  0  0  0  0  0  0  0  0  0  0
   -9.6392   19.0825  -29.1936 C   0  0  0  0  0  0  0  0  0  0  0  0
   -8.7538   19.8708  -29.9243 C   0  0  0  0  0  0  0  0  0  0  0  0
   -8.7239   19.7202  -31.2836 C   0  0  0  0  0  0  0  0  0  0  0  0
   -7.8878   20.4516  -32.0713 F   0  0  0  0  0  0  0  0  0  0  0  0
   -9.5502   18.8142  -31.8852 C   0  0  0  0  0  0  0  0  0  0  0  0
   -9.5542   18.5778  -33.6305 Cl  0  0  0  0  0  0  0  0  0  0  0  0
  -10.4087   18.0545  -31.1449 C   0  0  0  0  0  0  0  0  0  0  0  0
  -10.7216   15.2640  -30.0221 N   0  0  0  0  0  0  0  0  0  0  0  0
  -10.8411   13.9440  -30.2127 C   0  0  0  0  0  0  0  0  0  0  0  0
  -11.8491   13.2947  -29.6050 N   0  0  0  0  0  0  0  0  0  0  0  0
  -12.7240   13.9753  -28.8146 C   0  0  0  0  0  0  0  0  0  0  0  0
  -13.7588   13.3115  -28.1920 C   0  0  0  0  0  0  0  0  0  0  0  0
  -14.6775   13.9663  -27.3767 C   0  0  0  0  0  0  0  0  0  0  0  0
  -15.7191   13.2801  -26.7540 O   0  0  0  0  0  0  0  0  0  0  0  0
  -15.7441   11.8654  -26.8817 C   0  0  0  0  0  0  0  0  0  0  0  0
  -16.6664   11.2313  -25.9326 C   0  0  0  0  0  0  0  0  0  0  0  0
  -16.3625   10.7419  -24.6810 C   0  0  0  0  0  0  0  0  0  0  0  0
  -17.4735   10.2364  -24.1184 N   0  0  0  0  0  0  0  0  0  0  0  0
  -17.6439    9.6121  -22.8073 C   0  0  0  0  0  0  0  0  0  0  0  0
  -17.6395    8.1247  -22.8944 C   0  0  0  0  0  0  0  0  0  0  0  0
  -17.6605    7.4014  -21.5905 C   0  0  0  0  0  0  0  0  0  0  0  0
  -17.7473    5.9431  -21.6878 C   0  0  0  0  0  0  0  0  0  0  0  0
  -16.7857    5.2166  -22.0376 O   0  0  0  0  0  0  0  0  0  0  0  0
  -18.9631    5.2582  -21.3811 N   0  0  0  0  0  0  0  0  0  0  0  0
  -19.0964    3.9238  -21.5216 O   0  0  0  0  0  0  0  0  0  0  0  0
  -18.4681   10.4009  -24.9961 N   0  0  0  0  0  0  0  0  0  0  0  0
  -17.9954   10.9916  -26.0766 N   0  0  0  0  0  0  0  0  0  0  0  0
  1  2  2  0
  2  3  1  0
  3  4  2  0
  3  5  1  0
  5  6  1  0
  6  7  2  0
  7  8  1  0
  8  9  2  0
  9 10  1  0
 10 11  1  0
 11 12  2  0
 12 13  1  0
 13 14  2  0
 14 15  1  0
 14 16  1  0
 16 17  1  0
 16 18  2  0
  9 19  1  0
 19 20  2  0
 20 21  1  0
 21 22  2  0
 22 23  1  0
 23 24  2  0
 24 25  1  0
 25 26  1  0
 26 27  1  0
 27 28  2  0
 28 29  1  0
 29 30  1  0
 30 31  1  0
 31 32  1  0
 32 33  1  0
 33 34  2  0
 33 35  1  0
 35 36  1  0
 29 37  1  0
 37 38  2  0
 24  6  1  0
 38 27  1  0
 22  8  1  0
 18 11  1  0
M  END
$$$$
CHEMBL4759072_diffdock_6
     RDKit          3D

 38 41  0  0  0  0  0  0  0  0999 V2000
  -15.5641   18.6300  -24.1879 C   0  0  0  0  0  0  0  0  0  0  0  0
  -15.8121   17.4564  -24.7269 C   0  0  0  0  0  0  0  0  0  0  0  0
  -15.0128   17.0051  -25.8456 C   0  0  0  0  0  0  0  0  0  0  0  0
  -14.0742   17.7275  -26.2571 O   0  0  0  0  0  0  0  0  0  0  0  0
  -15.2236   15.7742  -26.5228 N   0  0  0  0  0  0  0  0  0  0  0  0
  -14.2077   15.1178  -27.2645 C   0  0  0  0  0  0  0  0  0  0  0  0
  -13.1580   15.8057  -27.8810 C   0  0  0  0  0  0  0  0  0  0  0  0
  -12.1703   15.1653  -28.6009 C   0  0  0  0  0  0  0  0  0  0  0  0
  -11.1292   15.8371  -29.2149 C   0  0  0  0  0  0  0  0  0  0  0  0
  -11.0263   17.2453  -29.1016 N   0  0  0  0  0  0  0  0  0  0  0  0
  -10.1798   18.0554  -29.8818 C   0  0  0  0  0  0  0  0  0  0  0  0
   -9.6613   19.2394  -29.4515 C   0  0  0  0  0  0  0  0  0  0  0  0
   -8.8402   20.0372  -30.2445 C   0  0  0  0  0  0  0  0  0  0  0  0
   -8.5455   19.6064  -31.5089 C   0  0  0  0  0  0  0  0  0  0  0  0
   -7.7506   20.3262  -32.3483 F   0  0  0  0  0  0  0  0  0  0  0  0
   -9.0550   18.4219  -31.9592 C   0  0  0  0  0  0  0  0  0  0  0  0
   -8.7088   17.8180  -33.5770 Cl  0  0  0  0  0  0  0  0  0  0  0  0
   -9.8575   17.6597  -31.1610 C   0  0  0  0  0  0  0  0  0  0  0  0
  -10.1983   15.1171  -29.9081 N   0  0  0  0  0  0  0  0  0  0  0  0
  -10.2374   13.7839  -30.0275 C   0  0  0  0  0  0  0  0  0  0  0  0
  -11.2422   13.1142  -29.4370 N   0  0  0  0  0  0  0  0  0  0  0  0
  -12.1945   13.7876  -28.7349 C   0  0  0  0  0  0  0  0  0  0  0  0
  -13.2260   13.1028  -28.1302 C   0  0  0  0  0  0  0  0  0  0  0  0
  -14.2220   13.7494  -27.4040 C   0  0  0  0  0  0  0  0  0  0  0  0
  -15.2592   13.0419  -26.7981 O   0  0  0  0  0  0  0  0  0  0  0  0
  -15.2855   11.6325  -26.9753 C   0  0  0  0  0  0  0  0  0  0  0  0
  -16.1457   10.9585  -25.9958 C   0  0  0  0  0  0  0  0  0  0  0  0
  -16.6290   11.4821  -24.8166 C   0  0  0  0  0  0  0  0  0  0  0  0
  -17.3802   10.5580  -24.1936 N   0  0  0  0  0  0  0  0  0  0  0  0
  -18.0958   10.6522  -22.9220 C   0  0  0  0  0  0  0  0  0  0  0  0
  -19.5116   11.0766  -23.1104 C   0  0  0  0  0  0  0  0  0  0  0  0
  -20.0900   11.9019  -22.0113 C   0  0  0  0  0  0  0  0  0  0  0  0
  -20.1296   13.3428  -22.2680 C   0  0  0  0  0  0  0  0  0  0  0  0
  -20.9100   13.8751  -23.0941 O   0  0  0  0  0  0  0  0  0  0  0  0
  -19.2585   14.2363  -21.5722 N   0  0  0  0  0  0  0  0  0  0  0  0
  -19.2128   15.5569  -21.8409 O   0  0  0  0  0  0  0  0  0  0  0  0
  -17.3757    9.4646  -24.9625 N   0  0  0  0  0  0  0  0  0  0  0  0
  -16.6439    9.6957  -26.0353 N   0  0  0  0  0  0  0  0  0  0  0  0
  1  2  2  0
  2  3  1  0
  3  4  2  0
  3  5  1  0
  5  6  1  0
  6  7  2  0
  7  8  1  0
  8  9  2  0
  9 10  1  0
 10 11  1  0
 11 12  2  0
 12 13  1  0
 13 14  2  0
 14 15  1  0
 14 16  1  0
 16 17  1  0
 16 18  2  0
  9 19  1  0
 19 20  2  0
 20 21  1  0
 21 22  2  0
 22 23  1  0
 23 24  2  0
 24 25  1  0
 25 26  1  0
 26 27  1  0
 27 28  2  0
 28 29  1  0
 29 30  1  0
 30 31  1  0
 31 32  1  0
 32 33  1  0
 33 34  2  0
 33 35  1  0
 35 36  1  0
 29 37  1  0
 37 38  2  0
 24  6  1  0
 38 27  1  0
 22  8  1  0
 18 11  1  0
M  END
$$$$
CHEMBL4759072_diffdock_7
     RDKit          3D

 38 41  0  0  0  0  0  0  0  0999 V2000
  -15.6851   19.1431  -24.2699 C   0  0  0  0  0  0  0  0  0  0  0  0
  -15.8409   17.8702  -24.5612 C   0  0  0  0  0  0  0  0  0  0  0  0
  -15.0495   17.2816  -25.6200 C   0  0  0  0  0  0  0  0  0  0  0  0
  -14.2432   18.0029  -26.2539 O   0  0  0  0  0  0  0  0  0  0  0  0
  -15.1255   15.9141  -25.9977 N   0  0  0  0  0  0  0  0  0  0  0  0
  -14.1722   15.2938  -26.8458 C   0  0  0  0  0  0  0  0  0  0  0  0
  -13.2289   16.0190  -27.5801 C   0  0  0  0  0  0  0  0  0  0  0  0
  -12.3018   15.4136  -28.4034 C   0  0  0  0  0  0  0  0  0  0  0  0
  -11.3660   16.1225  -29.1342 C   0  0  0  0  0  0  0  0  0  0  0  0
  -11.3115   17.5348  -29.0404 N   0  0  0  0  0  0  0  0  0  0  0  0
  -10.3931   18.3517  -29.7264 C   0  0  0  0  0  0  0  0  0  0  0  0
  -10.0928   19.6274  -29.3541 C   0  0  0  0  0  0  0  0  0  0  0  0
   -9.1951   20.4278  -30.0561 C   0  0  0  0  0  0  0  0  0  0  0  0
   -8.5921   19.9033  -31.1663 C   0  0  0  0  0  0  0  0  0  0  0  0
   -7.7024   20.6187  -31.9087 F   0  0  0  0  0  0  0  0  0  0  0  0
   -8.8790   18.6262  -31.5561 C   0  0  0  0  0  0  0  0  0  0  0  0
   -8.1326   17.8995  -32.9761 Cl  0  0  0  0  0  0  0  0  0  0  0  0
   -9.7632   17.8636  -30.8497 C   0  0  0  0  0  0  0  0  0  0  0  0
  -10.4888   15.4354  -29.9242 N   0  0  0  0  0  0  0  0  0  0  0  0
  -10.4839   14.1007  -30.0317 C   0  0  0  0  0  0  0  0  0  0  0  0
  -11.3863   13.3951  -29.3283 N   0  0  0  0  0  0  0  0  0  0  0  0
  -12.2817   14.0349  -28.5268 C   0  0  0  0  0  0  0  0  0  0  0  0
  -13.2084   13.3133  -27.8062 C   0  0  0  0  0  0  0  0  0  0  0  0
  -14.1434   13.9247  -26.9757 C   0  0  0  0  0  0  0  0  0  0  0  0
  -15.0746   13.1802  -26.2533 O   0  0  0  0  0  0  0  0  0  0  0  0
  -15.5532   11.9779  -26.8397 C   0  0  0  0  0  0  0  0  0  0  0  0
  -16.5662   11.3129  -26.0120 C   0  0  0  0  0  0  0  0  0  0  0  0
  -17.7559   11.8471  -25.5673 C   0  0  0  0  0  0  0  0  0  0  0  0
  -18.4106   10.9292  -24.8358 N   0  0  0  0  0  0  0  0  0  0  0  0
  -19.7039   11.0350  -24.1619 C   0  0  0  0  0  0  0  0  0  0  0  0
  -20.7761   10.3077  -24.8978 C   0  0  0  0  0  0  0  0  0  0  0  0
  -22.1372   10.3794  -24.2930 C   0  0  0  0  0  0  0  0  0  0  0  0
  -23.2474   10.2503  -25.2388 C   0  0  0  0  0  0  0  0  0  0  0  0
  -23.7912   11.2310  -25.8022 O   0  0  0  0  0  0  0  0  0  0  0  0
  -23.7796    8.9677  -25.5750 N   0  0  0  0  0  0  0  0  0  0  0  0
  -24.7514    8.8070  -26.4958 O   0  0  0  0  0  0  0  0  0  0  0  0
  -17.6515    9.8291  -24.8148 N   0  0  0  0  0  0  0  0  0  0  0  0
  -16.5538   10.0503  -25.5119 N   0  0  0  0  0  0  0  0  0  0  0  0
  1  2  2  0
  2  3  1  0
  3  4  2  0
  3  5  1  0
  5  6  1  0
  6  7  2  0
  7  8  1  0
  8  9  2  0
  9 10  1  0
 10 11  1  0
 11 12  2  0
 12 13  1  0
 13 14  2  0
 14 15  1  0
 14 16  1  0
 16 17  1  0
 16 18  2  0
  9 19  1  0
 19 20  2  0
 20 21  1  0
 21 22  2  0
 22 23  1  0
 23 24  2  0
 24 25  1  0
 25 26  1  0
 26 27  1  0
 27 28  2  0
 28 29  1  0
 29 30  1  0
 30 31  1  0
 31 32  1  0
 32 33  1  0
 33 34  2  0
 33 35  1  0
 35 36  1  0
 29 37  1  0
 37 38  2  0
 24  6  1  0
 38 27  1  0
 22  8  1  0
 18 11  1  0
M  END
$$$$
CHEMBL4759072_diffdock_8
     RDKit          3D

 38 41  0  0  0  0  0  0  0  0999 V2000
  -15.2880   18.9439  -24.1740 C   0  0  0  0  0  0  0  0  0  0  0  0
  -15.5529   17.6938  -24.4848 C   0  0  0  0  0  0  0  0  0  0  0  0
  -14.8190   17.0574  -25.5574 C   0  0  0  0  0  0  0  0  0  0  0  0
  -14.0565   17.7507  -26.2717 O   0  0  0  0  0  0  0  0  0  0  0  0
  -14.9054   15.6725  -25.8621 N   0  0  0  0  0  0  0  0  0  0  0  0
  -14.0081   15.0195  -26.7460 C   0  0  0  0  0  0  0  0  0  0  0  0
  -13.1498   15.7161  -27.6022 C   0  0  0  0  0  0  0  0  0  0  0  0
  -12.2769   15.0792  -28.4603 C   0  0  0  0  0  0  0  0  0  0  0  0
  -11.4254   15.7595  -29.3113 C   0  0  0  0  0  0  0  0  0  0  0  0
  -11.4036   17.1758  -29.3131 N   0  0  0  0  0  0  0  0  0  0  0  0
  -10.5932   17.9668  -30.1490 C   0  0  0  0  0  0  0  0  0  0  0  0
  -10.4436   17.7451  -31.4849 C   0  0  0  0  0  0  0  0  0  0  0  0
   -9.6224   18.5271  -32.2932 C   0  0  0  0  0  0  0  0  0  0  0  0
   -8.9400   19.5613  -31.7138 C   0  0  0  0  0  0  0  0  0  0  0  0
   -8.1166   20.3737  -32.4327 F   0  0  0  0  0  0  0  0  0  0  0  0
   -9.0766   19.8009  -30.3761 C   0  0  0  0  0  0  0  0  0  0  0  0
   -8.2230   21.1181  -29.5773 Cl  0  0  0  0  0  0  0  0  0  0  0  0
   -9.8881   19.0185  -29.6070 C   0  0  0  0  0  0  0  0  0  0  0  0
  -10.5972   15.0421  -30.1267 N   0  0  0  0  0  0  0  0  0  0  0  0
  -10.5631   13.7036  -30.1485 C   0  0  0  0  0  0  0  0  0  0  0  0
  -11.3838   13.0255  -29.3278 N   0  0  0  0  0  0  0  0  0  0  0  0
  -12.2278   13.6961  -28.4963 C   0  0  0  0  0  0  0  0  0  0  0  0
  -13.0708   13.0026  -27.6554 C   0  0  0  0  0  0  0  0  0  0  0  0
  -13.9510   13.6459  -26.7899 C   0  0  0  0  0  0  0  0  0  0  0  0
  -14.7978   12.9295  -25.9454 O   0  0  0  0  0  0  0  0  0  0  0  0
  -15.3092   11.6925  -26.4213 C   0  0  0  0  0  0  0  0  0  0  0  0
  -16.5953   11.3422  -25.8076 C   0  0  0  0  0  0  0  0  0  0  0  0
  -17.8437   11.7857  -26.1859 C   0  0  0  0  0  0  0  0  0  0  0  0
  -18.7725   11.2424  -25.3807 N   0  0  0  0  0  0  0  0  0  0  0  0
  -20.2243   11.4159  -25.3950 C   0  0  0  0  0  0  0  0  0  0  0  0
  -20.6400   12.6821  -24.7287 C   0  0  0  0  0  0  0  0  0  0  0  0
  -21.5369   12.5260  -23.5477 C   0  0  0  0  0  0  0  0  0  0  0  0
  -22.1367   13.7662  -23.0520 C   0  0  0  0  0  0  0  0  0  0  0  0
  -22.7255   13.8543  -21.9473 O   0  0  0  0  0  0  0  0  0  0  0  0
  -22.0793   14.9682  -23.8223 N   0  0  0  0  0  0  0  0  0  0  0  0
  -22.5074   16.1542  -23.3445 O   0  0  0  0  0  0  0  0  0  0  0  0
  -18.1273   10.4660  -24.5044 N   0  0  0  0  0  0  0  0  0  0  0  0
  -16.8330   10.5207  -24.7525 N   0  0  0  0  0  0  0  0  0  0  0  0
  1  2  2  0
  2  3  1  0
  3  4  2  0
  3  5  1  0
  5  6  1  0
  6  7  2  0
  7  8  1  0
  8  9  2  0
  9 10  1  0
 10 11  1  0
 11 12  2  0
 12 13  1  0
 13 14  2  0
 14 15  1  0
 14 16  1  0
 16 17  1  0
 16 18  2  0
  9 19  1  0
 19 20  2  0
 20 21  1  0
 21 22  2  0
 22 23  1  0
 23 24  2  0
 24 25  1  0
 25 26  1  0
 26 27  1  0
 27 28  2  0
 28 29  1  0
 29 30  1  0
 30 31  1  0
 31 32  1  0
 32 33  1  0
 33 34  2  0
 33 35  1  0
 35 36  1  0
 29 37  1  0
 37 38  2  0
 24  6  1  0
 38 27  1  0
 22  8  1  0
 18 11  1  0
M  END
$$$$
CHEMBL4759072_diffdock_9
     RDKit          3D

 38 41  0  0  0  0  0  0  0  0999 V2000
  -15.4430   18.8159  -24.3575 C   0  0  0  0  0  0  0  0  0  0  0  0
  -15.7544   17.7693  -25.0903 C   0  0  0  0  0  0  0  0  0  0  0  0
  -14.7448   17.1667  -25.9338 C   0  0  0  0  0  0  0  0  0  0  0  0
  -14.1239   17.8853  -26.7526 O   0  0  0  0  0  0  0  0  0  0  0  0
  -14.4024   15.7884  -25.8965 N   0  0  0  0  0  0  0  0  0  0  0  0
  -13.5521   15.1784  -26.8545 C   0  0  0  0  0  0  0  0  0  0  0  0
  -12.6412   15.9048  -27.6276 C   0  0  0  0  0  0  0  0  0  0  0  0
  -11.8142   15.3095  -28.5580 C   0  0  0  0  0  0  0  0  0  0  0  0
  -10.9113   16.0197  -29.3278 C   0  0  0  0  0  0  0  0  0  0  0  0
  -10.7851   17.4210  -29.1647 N   0  0  0  0  0  0  0  0  0  0  0  0
   -9.9266   18.2445  -29.9172 C   0  0  0  0  0  0  0  0  0  0  0  0
   -9.7796   18.1469  -31.2681 C   0  0  0  0  0  0  0  0  0  0  0  0
   -8.9111   18.9580  -31.9941 C   0  0  0  0  0  0  0  0  0  0  0  0
   -8.1774   19.8913  -31.3145 C   0  0  0  0  0  0  0  0  0  0  0  0
   -7.3057   20.7236  -31.9484 F   0  0  0  0  0  0  0  0  0  0  0  0
   -8.3105   20.0056  -29.9600 C   0  0  0  0  0  0  0  0  0  0  0  0
   -7.3921   21.1891  -29.0339 Cl  0  0  0  0  0  0  0  0  0  0  0  0
   -9.1691   19.1974  -29.2731 C   0  0  0  0  0  0  0  0  0  0  0  0
  -10.1349   15.3430  -30.2250 N   0  0  0  0  0  0  0  0  0  0  0  0
  -10.1995   14.0173  -30.4026 C   0  0  0  0  0  0  0  0  0  0  0  0
  -11.0715   13.3107  -29.6628 N   0  0  0  0  0  0  0  0  0  0  0  0
  -11.8671   13.9403  -28.7551 C   0  0  0  0  0  0  0  0  0  0  0  0
  -12.7624   13.2176  -27.9969 C   0  0  0  0  0  0  0  0  0  0  0  0
  -13.5964   13.8188  -27.0584 C   0  0  0  0  0  0  0  0  0  0  0  0
  -14.4971   13.0734  -26.2992 O   0  0  0  0  0  0  0  0  0  0  0  0
  -15.2936   12.1132  -26.9788 C   0  0  0  0  0  0  0  0  0  0  0  0
  -16.2079   11.4019  -26.0780 C   0  0  0  0  0  0  0  0  0  0  0  0
  -17.2793   11.9333  -25.3938 C   0  0  0  0  0  0  0  0  0  0  0  0
  -17.8710   10.9661  -24.6720 N   0  0  0  0  0  0  0  0  0  0  0  0
  -19.0365   11.0503  -23.7932 C   0  0  0  0  0  0  0  0  0  0  0  0
  -20.2166   11.6368  -24.4885 C   0  0  0  0  0  0  0  0  0  0  0  0
  -21.4256   11.8489  -23.6417 C   0  0  0  0  0  0  0  0  0  0  0  0
  -22.5627   12.4707  -24.3229 C   0  0  0  0  0  0  0  0  0  0  0  0
  -22.9053   13.6646  -24.1439 O   0  0  0  0  0  0  0  0  0  0  0  0
  -23.3586   11.7287  -25.2489 N   0  0  0  0  0  0  0  0  0  0  0  0
  -24.2653   12.3161  -26.0557 O   0  0  0  0  0  0  0  0  0  0  0  0
  -17.1886    9.8381  -24.8924 N   0  0  0  0  0  0  0  0  0  0  0  0
  -16.1988   10.0899  -25.7271 N   0  0  0  0  0  0  0  0  0  0  0  0
  1  2  2  0
  2  3  1  0
  3  4  2  0
  3  5  1  0
  5  6  1  0
  6  7  2  0
  7  8  1  0
  8  9  2  0
  9 10  1  0
 10 11  1  0
 11 12  2  0
 12 13  1  0
 13 14  2  0
 14 15  1  0
 14 16  1  0
 16 17  1  0
 16 18  2  0
  9 19  1  0
 19 20  2  0
 20 21  1  0
 21 22  2  0
 22 23  1  0
 23 24  2  0
 24 25  1  0
 25 26  1  0
 26 27  1  0
 27 28  2  0
 28 29  1  0
 29 30  1  0
 30 31  1  0
 31 32  1  0
 32 33  1  0
 33 34  2  0
 33 35  1  0
 35 36  1  0
 29 37  1  0
 37 38  2  0
 24  6  1  0
 38 27  1  0
 22  8  1  0
 18 11  1  0
M  END
$$$$
CHEMBL4759072_diffdock_10
     RDKit          3D

 38 41  0  0  0  0  0  0  0  0999 V2000
  -17.1659   14.0355  -23.5009 C   0  0  0  0  0  0  0  0  0  0  0  0
  -16.7489   15.2762  -23.6287 C   0  0  0  0  0  0  0  0  0  0  0  0
  -15.7907   15.6007  -24.6633 C   0  0  0  0  0  0  0  0  0  0  0  0
  -15.4528   14.7144  -25.4834 O   0  0  0  0  0  0  0  0  0  0  0  0
  -15.1947   16.8813  -24.8160 N   0  0  0  0  0  0  0  0  0  0  0  0
  -14.2166   17.1642  -25.8041 C   0  0  0  0  0  0  0  0  0  0  0  0
  -13.5653   16.1631  -26.5311 C   0  0  0  0  0  0  0  0  0  0  0  0
  -12.6152   16.4404  -27.4925 C   0  0  0  0  0  0  0  0  0  0  0  0
  -11.9651   15.4571  -28.2155 C   0  0  0  0  0  0  0  0  0  0  0  0
  -12.2798   14.0926  -28.0032 N   0  0  0  0  0  0  0  0  0  0  0  0
  -11.5291   13.0079  -28.4945 C   0  0  0  0  0  0  0  0  0  0  0  0
  -11.5157   11.7751  -27.9149 C   0  0  0  0  0  0  0  0  0  0  0  0
  -10.7519   10.7185  -28.4042 C   0  0  0  0  0  0  0  0  0  0  0  0
   -9.9846   10.9353  -29.5157 C   0  0  0  0  0  0  0  0  0  0  0  0
   -9.2090    9.9561  -30.0581 F   0  0  0  0  0  0  0  0  0  0  0  0
   -9.9842   12.1640  -30.1121 C   0  0  0  0  0  0  0  0  0  0  0  0
   -9.0167   12.4999  -31.5449 Cl  0  0  0  0  0  0  0  0  0  0  0  0
  -10.7423   13.1823  -29.6113 C   0  0  0  0  0  0  0  0  0  0  0  0
  -11.0371   15.8286  -29.1464 N   0  0  0  0  0  0  0  0  0  0  0  0
  -10.7185   17.1041  -29.4008 C   0  0  0  0  0  0  0  0  0  0  0  0
  -11.3406   18.0734  -28.7076 N   0  0  0  0  0  0  0  0  0  0  0  0
  -12.2732   17.7531  -27.7690 C   0  0  0  0  0  0  0  0  0  0  0  0
  -12.9108   18.7453  -27.0565 C   0  0  0  0  0  0  0  0  0  0  0  0
  -13.8693   18.4648  -26.0868 C   0  0  0  0  0  0  0  0  0  0  0  0
  -14.5053   19.4804  -25.3744 O   0  0  0  0  0  0  0  0  0  0  0  0
  -14.4778   20.7887  -25.9275 C   0  0  0  0  0  0  0  0  0  0  0  0
  -14.5154   21.8349  -24.8991 C   0  0  0  0  0  0  0  0  0  0  0  0
  -15.5693   22.1429  -24.0667 C   0  0  0  0  0  0  0  0  0  0  0  0
  -15.2191   23.1615  -23.2629 N   0  0  0  0  0  0  0  0  0  0  0  0
  -16.0003   23.8288  -22.2225 C   0  0  0  0  0  0  0  0  0  0  0  0
  -15.4699   23.5439  -20.8595 C   0  0  0  0  0  0  0  0  0  0  0  0
  -16.2143   24.1750  -19.7320 C   0  0  0  0  0  0  0  0  0  0  0  0
  -16.0097   23.5514  -18.4233 C   0  0  0  0  0  0  0  0  0  0  0  0
  -14.9024   23.1038  -18.0379 O   0  0  0  0  0  0  0  0  0  0  0  0
  -17.0893   23.4185  -17.4969 N   0  0  0  0  0  0  0  0  0  0  0  0
  -16.9197   23.5489  -16.1656 O   0  0  0  0  0  0  0  0  0  0  0  0
  -13.9640   23.4969  -23.5775 N   0  0  0  0  0  0  0  0  0  0  0  0
  -13.5397   22.7124  -24.5493 N   0  0  0  0  0  0  0  0  0  0  0  0
  1  2  2  0
  2  3  1  0
  3  4  2  0
  3  5  1  0
  5  6  1  0
  6  7  2  0
  7  8  1  0
  8  9  2  0
  9 10  1  0
 10 11  1  0
 11 12  2  0
 12 13  1  0
 13 14  2  0
 14 15  1  0
 14 16  1  0
 16 17  1  0
 16 18  2  0
  9 19  1  0
 19 20  2  0
 20 21  1  0
 21 22  2  0
 22 23  1  0
 23 24  2  0
 24 25  1  0
 25 26  1  0
 26 27  1  0
 27 28  2  0
 28 29  1  0
 29 30  1  0
 30 31  1  0
 31 32  1  0
 32 33  1  0
 33 34  2  0
 33 35  1  0
 35 36  1  0
 29 37  1  0
 37 38  2  0
 24  6  1  0
 38 27  1  0
 22  8  1  0
 18 11  1  0
M  END
$$$$
CHEMBL4787951_diffdock_1
     RDKit          3D

 37 41  0  0  0  0  0  0  0  0999 V2000
  -15.6752   16.1606  -25.3490 C   0  0  0  0  0  0  0  0  0  0  0  0
  -15.0389   15.0710  -25.9399 O   0  0  0  0  0  0  0  0  0  0  0  0
  -15.4260   13.7487  -25.8131 C   0  0  0  0  0  0  0  0  0  0  0  0
  -16.5355   13.4222  -25.0232 C   0  0  0  0  0  0  0  0  0  0  0  0
  -16.9550   12.1288  -24.8681 C   0  0  0  0  0  0  0  0  0  0  0  0
  -18.1253   11.7432  -24.0408 C   0  0  0  0  0  0  0  0  0  0  0  0
  -18.9588   10.7526  -24.6466 N   0  0  0  0  0  4  0  0  0  0  0  0
  -19.5229    9.8761  -23.6325 C   0  0  0  0  0  0  0  0  0  0  0  0
  -20.8089   10.4302  -23.0773 C   0  0  0  0  0  0  0  0  0  0  0  0
  -21.7275    9.4165  -22.6682 N   0  0  0  0  0  4  0  0  0  0  0  0
  -21.1642    8.5820  -21.6095 C   0  0  0  0  0  0  0  0  0  0  0  0
  -22.0715    7.3815  -21.4551 C   0  0  0  0  0  0  0  0  0  0  0  0
  -23.3540    7.8077  -21.0942 O   0  0  0  0  0  0  0  0  0  0  0  0
  -23.8975    8.6464  -22.0396 C   0  0  0  0  0  0  0  0  0  0  0  0
  -23.0009    9.8820  -22.2006 C   0  0  0  0  0  0  0  0  0  0  0  0
  -16.2432   11.1489  -25.5208 C   0  0  0  0  0  0  0  0  0  0  0  0
  -15.1493   11.4704  -26.2997 C   0  0  0  0  0  0  0  0  0  0  0  0
  -14.7088   12.7890  -26.4673 C   0  0  0  0  0  0  0  0  0  0  0  0
  -13.5450   13.0526  -27.3084 C   0  0  0  0  0  0  0  0  0  0  0  0
  -12.8100   14.2068  -27.4476 C   0  0  0  0  0  0  0  0  0  0  0  0
  -11.7725   14.0171  -28.3694 C   0  0  0  0  0  0  0  0  0  0  0  0
  -10.7654   14.8126  -28.8745 C   0  0  0  0  0  0  0  0  0  0  0  0
  -10.6963   16.1517  -28.4010 N   0  0  0  0  0  4  0  0  0  0  0  0
   -9.7321   16.8730  -29.2318 C   0  0  2  0  0  0  0  0  0  0  0  0
   -9.3545   18.2059  -28.6861 C   0  0  0  0  0  0  0  0  0  0  0  0
   -8.7789   18.1033  -27.4240 O   0  0  0  0  0  0  0  0  0  0  0  0
  -10.1898   16.9394  -30.6281 C   0  0  0  0  0  0  0  0  0  0  0  0
   -9.4344   16.6753  -31.7380 C   0  0  0  0  0  0  0  0  0  0  0  0
   -9.9345   16.7422  -33.0435 C   0  0  0  0  0  0  0  0  0  0  0  0
  -11.2476   17.0888  -33.2462 C   0  0  0  0  0  0  0  0  0  0  0  0
  -12.0208   17.3582  -32.1369 C   0  0  0  0  0  0  0  0  0  0  0  0
  -11.5247   17.2907  -30.8603 C   0  0  0  0  0  0  0  0  0  0  0  0
   -9.8894   14.3278  -29.7830 N   0  0  0  0  0  0  0  0  0  0  0  0
  -10.0277   13.0493  -30.1796 C   0  0  0  0  0  0  0  0  0  0  0  0
  -11.0089   12.2720  -29.6883 N   0  0  0  0  0  0  0  0  0  0  0  0
  -11.9103   12.7104  -28.7776 C   0  0  0  0  0  0  0  0  0  0  0  0
  -12.9560   12.1579  -28.1453 N   0  0  0  0  0  0  0  0  0  0  0  0
  1  2  1  0
  2  3  1  0
  3  4  2  0
  4  5  1  0
  5  6  1  0
  6  7  1  0
  7  8  1  0
  8  9  1  0
 10  9  1  0
 10 11  1  0
 11 12  1  0
 12 13  1  0
 13 14  1  0
 14 15  1  0
  5 16  2  0
 16 17  1  0
 17 18  2  0
 18 19  1  0
 19 20  2  0
 20 21  1  0
 21 22  2  0
 22 23  1  0
 23 24  1  0
 24 25  1  1
 25 26  1  0
 24 27  1  0
 27 28  2  0
 28 29  1  0
 29 30  2  0
 30 31  1  0
 31 32  2  0
 22 33  1  0
 33 34  2  0
 34 35  1  0
 35 36  2  0
 36 37  1  0
 18  3  1  0
 37 19  1  0
 15 10  1  0
 36 21  1  0
 32 27  1  0
M  CHG  3   7   1  10   1  23   1
M  END
$$$$
CHEMBL4787951_diffdock_2
     RDKit          3D

 37 41  0  0  0  0  0  0  0  0999 V2000
  -11.7878   16.9057  -23.1934 C   0  0  0  0  0  0  0  0  0  0  0  0
  -12.1551   16.7709  -24.5306 O   0  0  0  0  0  0  0  0  0  0  0  0
  -12.6917   17.7716  -25.3212 C   0  0  0  0  0  0  0  0  0  0  0  0
  -12.9316   19.0376  -24.7722 C   0  0  0  0  0  0  0  0  0  0  0  0
  -13.4612   20.0575  -25.5153 C   0  0  0  0  0  0  0  0  0  0  0  0
  -13.7291   21.4117  -24.9701 C   0  0  0  0  0  0  0  0  0  0  0  0
  -15.1070   21.6532  -24.6768 N   0  0  0  0  0  4  0  0  0  0  0  0
  -15.2439   22.2933  -23.3782 C   0  0  0  0  0  0  0  0  0  0  0  0
  -16.6892   22.5446  -23.0362 C   0  0  0  0  0  0  0  0  0  0  0  0
  -16.9328   22.5995  -21.6304 N   0  0  0  0  0  4  0  0  0  0  0  0
  -17.0891   21.2621  -21.0634 C   0  0  0  0  0  0  0  0  0  0  0  0
  -17.6277   21.4308  -19.6599 C   0  0  0  0  0  0  0  0  0  0  0  0
  -16.7182   22.1690  -18.8954 O   0  0  0  0  0  0  0  0  0  0  0  0
  -16.4969   23.4169  -19.4306 C   0  0  0  0  0  0  0  0  0  0  0  0
  -15.9330   23.2698  -20.8507 C   0  0  0  0  0  0  0  0  0  0  0  0
  -13.7536   19.7956  -26.8340 C   0  0  0  0  0  0  0  0  0  0  0  0
  -13.5173   18.5477  -27.3757 C   0  0  0  0  0  0  0  0  0  0  0  0
  -12.9760   17.4950  -26.6274 C   0  0  0  0  0  0  0  0  0  0  0  0
  -12.7518   16.2030  -27.2692 C   0  0  0  0  0  0  0  0  0  0  0  0
  -13.1871   14.9532  -26.8946 C   0  0  0  0  0  0  0  0  0  0  0  0
  -12.7362   13.9865  -27.8025 C   0  0  0  0  0  0  0  0  0  0  0  0
  -12.8713   12.6181  -27.9101 C   0  0  0  0  0  0  0  0  0  0  0  0
  -13.6292   11.9593  -26.9032 N   0  0  0  0  0  4  0  0  0  0  0  0
  -15.0392   12.0227  -27.2884 C   0  0  2  0  0  0  0  0  0  0  0  0
  -15.7601   13.1952  -26.7206 C   0  0  0  0  0  0  0  0  0  0  0  0
  -17.0429   13.3163  -27.2445 O   0  0  0  0  0  0  0  0  0  0  0  0
  -15.7171   10.7480  -27.0072 C   0  0  0  0  0  0  0  0  0  0  0  0
  -16.0188   10.2508  -25.7687 C   0  0  0  0  0  0  0  0  0  0  0  0
  -16.6807    9.0340  -25.5678 C   0  0  0  0  0  0  0  0  0  0  0  0
  -17.0562    8.2826  -26.6540 C   0  0  0  0  0  0  0  0  0  0  0  0
  -16.7581    8.7710  -27.9085 C   0  0  0  0  0  0  0  0  0  0  0  0
  -16.1096    9.9641  -28.0986 C   0  0  0  0  0  0  0  0  0  0  0  0
  -12.2998   11.9439  -28.9331 N   0  0  0  0  0  0  0  0  0  0  0  0
  -11.5968   12.6444  -29.8418 C   0  0  0  0  0  0  0  0  0  0  0  0
  -11.4639   13.9787  -29.7388 N   0  0  0  0  0  0  0  0  0  0  0  0
  -12.0165   14.6990  -28.7338 C   0  0  0  0  0  0  0  0  0  0  0  0
  -12.0352   15.9994  -28.4062 N   0  0  0  0  0  0  0  0  0  0  0  0
  1  2  1  0
  2  3  1  0
  3  4  2  0
  4  5  1  0
  5  6  1  0
  6  7  1  0
  7  8  1  0
  8  9  1  0
 10  9  1  0
 10 11  1  0
 11 12  1  0
 12 13  1  0
 13 14  1  0
 14 15  1  0
  5 16  2  0
 16 17  1  0
 17 18  2  0
 18 19  1  0
 19 20  2  0
 20 21  1  0
 21 22  2  0
 22 23  1  0
 23 24  1  0
 24 25  1  1
 25 26  1  0
 24 27  1  0
 27 28  2  0
 28 29  1  0
 29 30  2  0
 30 31  1  0
 31 32  2  0
 22 33  1  0
 33 34  2  0
 34 35  1  0
 35 36  2  0
 36 37  1  0
 18  3  1  0
 37 19  1  0
 15 10  1  0
 36 21  1  0
 32 27  1  0
M  CHG  3   7   1  10   1  23   1
M  END
$$$$
CHEMBL4787951_diffdock_3
     RDKit          3D

 37 41  0  0  0  0  0  0  0  0999 V2000
  -16.3765   16.1978  -25.4174 C   0  0  0  0  0  0  0  0  0  0  0  0
  -15.5743   15.2669  -26.0740 O   0  0  0  0  0  0  0  0  0  0  0  0
  -15.7819   13.8991  -26.0935 C   0  0  0  0  0  0  0  0  0  0  0  0
  -16.9122   13.3588  -25.4673 C   0  0  0  0  0  0  0  0  0  0  0  0
  -17.1587   12.0127  -25.4605 C   0  0  0  0  0  0  0  0  0  0  0  0
  -18.3444   11.4027  -24.8087 C   0  0  0  0  0  0  0  0  0  0  0  0
  -18.7029   12.0194  -23.5701 N   0  0  0  0  0  4  0  0  0  0  0  0
  -19.1432   11.0165  -22.6135 C   0  0  0  0  0  0  0  0  0  0  0  0
  -20.4736   11.3786  -22.0070 C   0  0  0  0  0  0  0  0  0  0  0  0
  -21.2134   10.2437  -21.5559 N   0  0  0  0  0  4  0  0  0  0  0  0
  -21.5319   10.3455  -20.1337 C   0  0  0  0  0  0  0  0  0  0  0  0
  -22.0433    8.9922  -19.6914 C   0  0  0  0  0  0  0  0  0  0  0  0
  -23.1952    8.6678  -20.4156 O   0  0  0  0  0  0  0  0  0  0  0  0
  -22.9506    8.6207  -21.7685 C   0  0  0  0  0  0  0  0  0  0  0  0
  -22.4463    9.9906  -22.2434 C   0  0  0  0  0  0  0  0  0  0  0  0
  -16.2498   11.1984  -26.0960 C   0  0  0  0  0  0  0  0  0  0  0  0
  -15.1354   11.7307  -26.7136 C   0  0  0  0  0  0  0  0  0  0  0  0
  -14.8704   13.1057  -26.7284 C   0  0  0  0  0  0  0  0  0  0  0  0
  -13.6724   13.5957  -27.4037 C   0  0  0  0  0  0  0  0  0  0  0  0
  -13.1624   14.8717  -27.4637 C   0  0  0  0  0  0  0  0  0  0  0  0
  -11.9878   14.8929  -28.2266 C   0  0  0  0  0  0  0  0  0  0  0  0
  -11.0924   15.8721  -28.6029 C   0  0  0  0  0  0  0  0  0  0  0  0
  -11.3515   17.1963  -28.1538 N   0  0  0  0  0  4  0  0  0  0  0  0
  -10.3494   18.0781  -28.7524 C   0  0  2  0  0  0  0  0  0  0  0  0
  -10.4479   19.4909  -28.2930 C   0  0  0  0  0  0  0  0  0  0  0  0
   -9.9130   19.6589  -27.0200 O   0  0  0  0  0  0  0  0  0  0  0  0
  -10.3522   17.9555  -30.2182 C   0  0  0  0  0  0  0  0  0  0  0  0
  -11.4454   17.7169  -31.0057 C   0  0  0  0  0  0  0  0  0  0  0  0
  -11.3841   17.6257  -32.4010 C   0  0  0  0  0  0  0  0  0  0  0  0
  -10.1758   17.7797  -33.0349 C   0  0  0  0  0  0  0  0  0  0  0  0
   -9.0653   18.0201  -32.2540 C   0  0  0  0  0  0  0  0  0  0  0  0
   -9.1322   18.1086  -30.8872 C   0  0  0  0  0  0  0  0  0  0  0  0
  -10.0195   15.5724  -29.3689 N   0  0  0  0  0  0  0  0  0  0  0  0
   -9.8501   14.2939  -29.7529 C   0  0  0  0  0  0  0  0  0  0  0  0
  -10.7220   13.3375  -29.3871 N   0  0  0  0  0  0  0  0  0  0  0  0
  -11.8110   13.5868  -28.6215 C   0  0  0  0  0  0  0  0  0  0  0  0
  -12.8089   12.8376  -28.1300 N   0  0  0  0  0  0  0  0  0  0  0  0
  1  2  1  0
  2  3  1  0
  3  4  2  0
  4  5  1  0
  5  6  1  0
  6  7  1  0
  7  8  1  0
  8  9  1  0
 10  9  1  0
 10 11  1  0
 11 12  1  0
 12 13  1  0
 13 14  1  0
 14 15  1  0
  5 16  2  0
 16 17  1  0
 17 18  2  0
 18 19  1  0
 19 20  2  0
 20 21  1  0
 21 22  2  0
 22 23  1  0
 23 24  1  0
 24 25  1  6
 25 26  1  0
 24 27  1  0
 27 28  2  0
 28 29  1  0
 29 30  2  0
 30 31  1  0
 31 32  2  0
 22 33  1  0
 33 34  2  0
 34 35  1  0
 35 36  2  0
 36 37  1  0
 18  3  1  0
 37 19  1  0
 15 10  1  0
 36 21  1  0
 32 27  1  0
M  CHG  3   7   1  10   1  23   1
M  END
$$$$
CHEMBL4787951_diffdock_4
     RDKit          3D

 37 41  0  0  0  0  0  0  0  0999 V2000
  -15.4844    9.7556  -26.8430 C   0  0  0  0  0  0  0  0  0  0  0  0
  -15.2015   11.1084  -27.0195 O   0  0  0  0  0  0  0  0  0  0  0  0
  -15.7423   12.1455  -26.2803 C   0  0  0  0  0  0  0  0  0  0  0  0
  -16.8518   11.9086  -25.4590 C   0  0  0  0  0  0  0  0  0  0  0  0
  -17.4205   12.9032  -24.7104 C   0  0  0  0  0  0  0  0  0  0  0  0
  -18.5953   12.6916  -23.8284 C   0  0  0  0  0  0  0  0  0  0  0  0
  -18.2738   12.6646  -22.4360 N   0  0  0  0  0  4  0  0  0  0  0  0
  -19.4580   12.3612  -21.6484 C   0  0  0  0  0  0  0  0  0  0  0  0
  -19.7201   13.4241  -20.6137 C   0  0  0  0  0  0  0  0  0  0  0  0
  -20.7034   13.0417  -19.6516 N   0  0  0  0  0  4  0  0  0  0  0  0
  -20.1594   12.0959  -18.6800 C   0  0  0  0  0  0  0  0  0  0  0  0
  -21.3274   11.5333  -17.9004 C   0  0  0  0  0  0  0  0  0  0  0  0
  -21.9896   12.5709  -17.2360 O   0  0  0  0  0  0  0  0  0  0  0  0
  -22.4663   13.5164  -18.1142 C   0  0  0  0  0  0  0  0  0  0  0  0
  -21.2945   14.1142  -18.9052 C   0  0  0  0  0  0  0  0  0  0  0  0
  -16.8605   14.1573  -24.7920 C   0  0  0  0  0  0  0  0  0  0  0  0
  -15.7666   14.3912  -25.6016 C   0  0  0  0  0  0  0  0  0  0  0  0
  -15.1746   13.3834  -26.3729 C   0  0  0  0  0  0  0  0  0  0  0  0
  -14.0182   13.7053  -27.2038 C   0  0  0  0  0  0  0  0  0  0  0  0
  -13.5753   14.9287  -27.6499 C   0  0  0  0  0  0  0  0  0  0  0  0
  -12.4203   14.7762  -28.4277 C   0  0  0  0  0  0  0  0  0  0  0  0
  -11.5844   15.6400  -29.1040 C   0  0  0  0  0  0  0  0  0  0  0  0
  -11.9007   17.0254  -29.0496 N   0  0  0  0  0  4  0  0  0  0  0  0
  -10.7786   17.7180  -28.4159 C   0  0  2  0  0  0  0  0  0  0  0  0
  -11.1604   19.0032  -27.7684 C   0  0  0  0  0  0  0  0  0  0  0  0
  -10.6740   20.1005  -28.4714 O   0  0  0  0  0  0  0  0  0  0  0  0
   -9.6564   17.8661  -29.3552 C   0  0  0  0  0  0  0  0  0  0  0  0
   -8.3288   17.9031  -29.0263 C   0  0  0  0  0  0  0  0  0  0  0  0
   -7.3047   18.0316  -29.9716 C   0  0  0  0  0  0  0  0  0  0  0  0
   -7.6239   18.1275  -31.3037 C   0  0  0  0  0  0  0  0  0  0  0  0
   -8.9581   18.0922  -31.6499 C   0  0  0  0  0  0  0  0  0  0  0  0
   -9.9567   17.9659  -30.7187 C   0  0  0  0  0  0  0  0  0  0  0  0
  -10.5147   15.1756  -29.7879 N   0  0  0  0  0  0  0  0  0  0  0  0
  -10.2890   13.8490  -29.7900 C   0  0  0  0  0  0  0  0  0  0  0  0
  -11.1028   13.0050  -29.1313 N   0  0  0  0  0  0  0  0  0  0  0  0
  -12.1859   13.4204  -28.4325 C   0  0  0  0  0  0  0  0  0  0  0  0
  -13.1334   12.8057  -27.7092 N   0  0  0  0  0  0  0  0  0  0  0  0
  1  2  1  0
  2  3  1  0
  3  4  2  0
  4  5  1  0
  5  6  1  0
  6  7  1  0
  7  8  1  0
  8  9  1  0
 10  9  1  0
 10 11  1  0
 11 12  1  0
 12 13  1  0
 13 14  1  0
 14 15  1  0
  5 16  2  0
 16 17  1  0
 17 18  2  0
 18 19  1  0
 19 20  2  0
 20 21  1  0
 21 22  2  0
 22 23  1  0
 23 24  1  0
 24 25  1  6
 25 26  1  0
 24 27  1  0
 27 28  2  0
 28 29  1  0
 29 30  2  0
 30 31  1  0
 31 32  2  0
 22 33  1  0
 33 34  2  0
 34 35  1  0
 35 36  2  0
 36 37  1  0
 18  3  1  0
 37 19  1  0
 15 10  1  0
 36 21  1  0
 32 27  1  0
M  CHG  3   7   1  10   1  23   1
M  END
$$$$
CHEMBL4787951_diffdock_5
     RDKit          3D

 37 41  0  0  0  0  0  0  0  0999 V2000
  -16.9550   15.9773  -25.7185 C   0  0  0  0  0  0  0  0  0  0  0  0
  -16.1135   15.0198  -26.2811 O   0  0  0  0  0  0  0  0  0  0  0  0
  -16.3232   13.6524  -26.2573 C   0  0  0  0  0  0  0  0  0  0  0  0
  -17.4614   13.1348  -25.6264 C   0  0  0  0  0  0  0  0  0  0  0  0
  -17.7103   11.7899  -25.5776 C   0  0  0  0  0  0  0  0  0  0  0  0
  -18.9044   11.2036  -24.9195 C   0  0  0  0  0  0  0  0  0  0  0  0
  -18.5925   10.2373  -23.9135 N   0  0  0  0  0  4  0  0  0  0  0  0
  -19.7795    9.9107  -23.1394 C   0  0  0  0  0  0  0  0  0  0  0  0
  -19.4770    8.8992  -22.0650 C   0  0  0  0  0  0  0  0  0  0  0  0
  -20.4822    8.8364  -21.0530 N   0  0  0  0  0  4  0  0  0  0  0  0
  -21.7171    8.2457  -21.5637 C   0  0  0  0  0  0  0  0  0  0  0  0
  -22.7922    8.4902  -20.5280 C   0  0  0  0  0  0  0  0  0  0  0  0
  -22.4315    7.8744  -19.3249 O   0  0  0  0  0  0  0  0  0  0  0  0
  -21.2398    8.3614  -18.8400 C   0  0  0  0  0  0  0  0  0  0  0  0
  -20.1291    8.1083  -19.8689 C   0  0  0  0  0  0  0  0  0  0  0  0
  -16.7956   10.9538  -26.1751 C   0  0  0  0  0  0  0  0  0  0  0  0
  -15.6733   11.4637  -26.7973 C   0  0  0  0  0  0  0  0  0  0  0  0
  -15.4058   12.8371  -26.8549 C   0  0  0  0  0  0  0  0  0  0  0  0
  -14.1993   13.3027  -27.5324 C   0  0  0  0  0  0  0  0  0  0  0  0
  -13.7389   14.5858  -27.7149 C   0  0  0  0  0  0  0  0  0  0  0  0
  -12.5329   14.5753  -28.4276 C   0  0  0  0  0  0  0  0  0  0  0  0
  -11.6617   15.5461  -28.8754 C   0  0  0  0  0  0  0  0  0  0  0  0
  -11.9937   16.8988  -28.5888 N   0  0  0  0  0  4  0  0  0  0  0  0
  -10.7449   17.6456  -28.4365 C   0  0  2  0  0  0  0  0  0  0  0  0
  -10.9114   18.9492  -27.7368 C   0  0  0  0  0  0  0  0  0  0  0  0
  -10.5223   18.8734  -26.4035 O   0  0  0  0  0  0  0  0  0  0  0  0
  -10.0527   17.7778  -29.7276 C   0  0  0  0  0  0  0  0  0  0  0  0
  -10.6350   17.7215  -30.9645 C   0  0  0  0  0  0  0  0  0  0  0  0
   -9.9209   17.8700  -32.1591 C   0  0  0  0  0  0  0  0  0  0  0  0
   -8.5653   18.0836  -32.1130 C   0  0  0  0  0  0  0  0  0  0  0  0
   -7.9648   18.1421  -30.8732 C   0  0  0  0  0  0  0  0  0  0  0  0
   -8.6702   17.9961  -29.7064 C   0  0  0  0  0  0  0  0  0  0  0  0
  -10.5442   15.2121  -29.5591 N   0  0  0  0  0  0  0  0  0  0  0  0
  -10.3066   13.9078  -29.7898 C   0  0  0  0  0  0  0  0  0  0  0  0
  -11.1549   12.9596  -29.3541 N   0  0  0  0  0  0  0  0  0  0  0  0
  -12.2862   13.2428  -28.6657 C   0  0  0  0  0  0  0  0  0  0  0  0
  -13.2744   12.5086  -28.1336 N   0  0  0  0  0  0  0  0  0  0  0  0
  1  2  1  0
  2  3  1  0
  3  4  2  0
  4  5  1  0
  5  6  1  0
  6  7  1  0
  7  8  1  0
  8  9  1  0
 10  9  1  0
 10 11  1  0
 11 12  1  0
 12 13  1  0
 13 14  1  0
 14 15  1  0
  5 16  2  0
 16 17  1  0
 17 18  2  0
 18 19  1  0
 19 20  2  0
 20 21  1  0
 21 22  2  0
 22 23  1  0
 23 24  1  0
 24 25  1  6
 25 26  1  0
 24 27  1  0
 27 28  2  0
 28 29  1  0
 29 30  2  0
 30 31  1  0
 31 32  2  0
 22 33  1  0
 33 34  2  0
 34 35  1  0
 35 36  2  0
 36 37  1  0
 18  3  1  0
 37 19  1  0
 15 10  1  0
 36 21  1  0
 32 27  1  0
M  CHG  3   7   1  10   1  23   1
M  END
$$$$
CHEMBL4787951_diffdock_6
     RDKit          3D

 37 41  0  0  0  0  0  0  0  0999 V2000
  -15.9669   15.6519  -24.8113 C   0  0  0  0  0  0  0  0  0  0  0  0
  -15.2676   14.8190  -25.6822 O   0  0  0  0  0  0  0  0  0  0  0  0
  -15.5398   13.4811  -25.9067 C   0  0  0  0  0  0  0  0  0  0  0  0
  -16.6905   12.9041  -25.3550 C   0  0  0  0  0  0  0  0  0  0  0  0
  -17.0004   11.5853  -25.5497 C   0  0  0  0  0  0  0  0  0  0  0  0
  -18.2097   10.9381  -24.9827 C   0  0  0  0  0  0  0  0  0  0  0  0
  -17.9646   10.2169  -23.7732 N   0  0  0  0  0  4  0  0  0  0  0  0
  -18.7528   10.7714  -22.6842 C   0  0  0  0  0  0  0  0  0  0  0  0
  -19.9739    9.9349  -22.4048 C   0  0  0  0  0  0  0  0  0  0  0  0
  -20.5836   10.2322  -21.1484 N   0  0  0  0  0  4  0  0  0  0  0  0
  -21.4478   11.4068  -21.2395 C   0  0  0  0  0  0  0  0  0  0  0  0
  -21.8047   11.8108  -19.8261 C   0  0  0  0  0  0  0  0  0  0  0  0
  -22.4882   10.7639  -19.1988 O   0  0  0  0  0  0  0  0  0  0  0  0
  -21.7287    9.6181  -19.1463 C   0  0  0  0  0  0  0  0  0  0  0  0
  -21.3688    9.1793  -20.5725 C   0  0  0  0  0  0  0  0  0  0  0  0
  -16.1349   10.8368  -26.3136 C   0  0  0  0  0  0  0  0  0  0  0  0
  -15.0004   11.4054  -26.8578 C   0  0  0  0  0  0  0  0  0  0  0  0
  -14.6707   12.7529  -26.6668 C   0  0  0  0  0  0  0  0  0  0  0  0
  -13.4550   13.2847  -27.2755 C   0  0  0  0  0  0  0  0  0  0  0  0
  -12.7722   14.4453  -26.9951 C   0  0  0  0  0  0  0  0  0  0  0  0
  -11.6514   14.5657  -27.8268 C   0  0  0  0  0  0  0  0  0  0  0  0
  -10.6480   15.5005  -27.9741 C   0  0  0  0  0  0  0  0  0  0  0  0
  -10.6897   16.6377  -27.1212 N   0  0  0  0  0  4  0  0  0  0  0  0
  -10.0767   17.7577  -27.8354 C   0  0  2  0  0  0  0  0  0  0  0  0
   -9.6459   18.8694  -26.9435 C   0  0  0  0  0  0  0  0  0  0  0  0
   -8.8545   19.7945  -27.6162 O   0  0  0  0  0  0  0  0  0  0  0  0
  -10.9404   18.2136  -28.9353 C   0  0  0  0  0  0  0  0  0  0  0  0
  -12.2173   18.6900  -28.8138 C   0  0  0  0  0  0  0  0  0  0  0  0
  -12.9840   19.1235  -29.9016 C   0  0  0  0  0  0  0  0  0  0  0  0
  -12.4490   19.0777  -31.1653 C   0  0  0  0  0  0  0  0  0  0  0  0
  -11.1633   18.5993  -31.3030 C   0  0  0  0  0  0  0  0  0  0  0  0
  -10.4172   18.1762  -30.2331 C   0  0  0  0  0  0  0  0  0  0  0  0
   -9.6738   15.3316  -28.8960 N   0  0  0  0  0  0  0  0  0  0  0  0
   -9.7107   14.2275  -29.6645 C   0  0  0  0  0  0  0  0  0  0  0  0
  -10.6882   13.3149  -29.5226 N   0  0  0  0  0  0  0  0  0  0  0  0
  -11.6855   13.4383  -28.6147 C   0  0  0  0  0  0  0  0  0  0  0  0
  -12.7509   12.6963  -28.2784 N   0  0  0  0  0  0  0  0  0  0  0  0
  1  2  1  0
  2  3  1  0
  3  4  2  0
  4  5  1  0
  5  6  1  0
  6  7  1  0
  7  8  1  0
  8  9  1  0
 10  9  1  0
 10 11  1  0
 11 12  1  0
 12 13  1  0
 13 14  1  0
 14 15  1  0
  5 16  2  0
 16 17  1  0
 17 18  2  0
 18 19  1  0
 19 20  2  0
 20 21  1  0
 21 22  2  0
 22 23  1  0
 23 24  1  0
 24 25  1  1
 25 26  1  0
 24 27  1  0
 27 28  2  0
 28 29  1  0
 29 30  2  0
 30 31  1  0
 31 32  2  0
 22 33  1  0
 33 34  2  0
 34 35  1  0
 35 36  2  0
 36 37  1  0
 18  3  1  0
 37 19  1  0
 15 10  1  0
 36 21  1  0
 32 27  1  0
M  CHG  3   7   1  10   1  23   1
M  END
$$$$
CHEMBL4787951_diffdock_7
     RDKit          3D

 37 41  0  0  0  0  0  0  0  0999 V2000
  -16.2729   16.1873  -25.3178 C   0  0  0  0  0  0  0  0  0  0  0  0
  -15.4381   15.1563  -25.7435 O   0  0  0  0  0  0  0  0  0  0  0  0
  -15.7339   13.8060  -25.6828 C   0  0  0  0  0  0  0  0  0  0  0  0
  -16.7901   13.3615  -24.8776 C   0  0  0  0  0  0  0  0  0  0  0  0
  -17.1189   12.0362  -24.7860 C   0  0  0  0  0  0  0  0  0  0  0  0
  -18.2305   11.5267  -23.9448 C   0  0  0  0  0  0  0  0  0  0  0  0
  -19.4514   11.3276  -24.6610 N   0  0  0  0  0  4  0  0  0  0  0  0
  -20.5142   10.9324  -23.7504 C   0  0  0  0  0  0  0  0  0  0  0  0
  -21.8085   10.6934  -24.4831 C   0  0  0  0  0  0  0  0  0  0  0  0
  -22.8460   10.1894  -23.6416 N   0  0  0  0  0  4  0  0  0  0  0  0
  -23.1874   11.1413  -22.5872 C   0  0  0  0  0  0  0  0  0  0  0  0
  -24.0638   10.4126  -21.5926 C   0  0  0  0  0  0  0  0  0  0  0  0
  -25.2275    9.9704  -22.2303 O   0  0  0  0  0  0  0  0  0  0  0  0
  -24.9455    9.1161  -23.2711 C   0  0  0  0  0  0  0  0  0  0  0  0
  -24.0701    9.8412  -24.3028 C   0  0  0  0  0  0  0  0  0  0  0  0
  -16.3697   11.1449  -25.5190 C   0  0  0  0  0  0  0  0  0  0  0  0
  -15.3284   11.5828  -26.3131 C   0  0  0  0  0  0  0  0  0  0  0  0
  -14.9807   12.9353  -26.4163 C   0  0  0  0  0  0  0  0  0  0  0  0
  -13.8682   13.3237  -27.2783 C   0  0  0  0  0  0  0  0  0  0  0  0
  -13.2889   14.5585  -27.4552 C   0  0  0  0  0  0  0  0  0  0  0  0
  -12.2441   14.4792  -28.3850 C   0  0  0  0  0  0  0  0  0  0  0  0
  -11.3522   15.3836  -28.9224 C   0  0  0  0  0  0  0  0  0  0  0  0
  -11.4513   16.7325  -28.4831 N   0  0  0  0  0  4  0  0  0  0  0  0
  -10.1248   17.3395  -28.5930 C   0  0  2  0  0  0  0  0  0  0  0  0
   -9.9953   18.6268  -27.8560 C   0  0  0  0  0  0  0  0  0  0  0  0
   -9.0094   18.5647  -26.8768 O   0  0  0  0  0  0  0  0  0  0  0  0
   -9.7125   17.4467  -30.0009 C   0  0  0  0  0  0  0  0  0  0  0  0
   -8.4535   17.2315  -30.4913 C   0  0  0  0  0  0  0  0  0  0  0  0
   -8.1277   17.3354  -31.8485 C   0  0  0  0  0  0  0  0  0  0  0  0
   -9.1048   17.6697  -32.7535 C   0  0  0  0  0  0  0  0  0  0  0  0
  -10.3784   17.8901  -32.2735 C   0  0  0  0  0  0  0  0  0  0  0  0
  -10.6911   17.7864  -30.9424 C   0  0  0  0  0  0  0  0  0  0  0  0
  -10.4297   14.9914  -29.8294 N   0  0  0  0  0  0  0  0  0  0  0  0
  -10.4063   13.6958  -30.1924 C   0  0  0  0  0  0  0  0  0  0  0  0
  -11.2750   12.8123  -29.6697 N   0  0  0  0  0  0  0  0  0  0  0  0
  -12.2168   13.1554  -28.7589 C   0  0  0  0  0  0  0  0  0  0  0  0
  -13.1770   12.4902  -28.1000 N   0  0  0  0  0  0  0  0  0  0  0  0
  1  2  1  0
  2  3  1  0
  3  4  2  0
  4  5  1  0
  5  6  1  0
  6  7  1  0
  7  8  1  0
  8  9  1  0
 10  9  1  0
 10 11  1  0
 11 12  1  0
 12 13  1  0
 13 14  1  0
 14 15  1  0
  5 16  2  0
 16 17  1  0
 17 18  2  0
 18 19  1  0
 19 20  2  0
 20 21  1  0
 21 22  2  0
 22 23  1  0
 23 24  1  0
 24 25  1  6
 25 26  1  0
 24 27  1  0
 27 28  2  0
 28 29  1  0
 29 30  2  0
 30 31  1  0
 31 32  2  0
 22 33  1  0
 33 34  2  0
 34 35  1  0
 35 36  2  0
 36 37  1  0
 18  3  1  0
 37 19  1  0
 15 10  1  0
 36 21  1  0
 32 27  1  0
M  CHG  3   7   1  10   1  23   1
M  END
$$$$
CHEMBL4787951_diffdock_8
     RDKit          3D

 37 41  0  0  0  0  0  0  0  0999 V2000
  -15.9115    9.6414  -26.9136 C   0  0  0  0  0  0  0  0  0  0  0  0
  -15.3581   10.9188  -26.8570 O   0  0  0  0  0  0  0  0  0  0  0  0
  -15.8256   11.9631  -26.0790 C   0  0  0  0  0  0  0  0  0  0  0  0
  -16.9558   11.7775  -25.2730 C   0  0  0  0  0  0  0  0  0  0  0  0
  -17.4543   12.7812  -24.4875 C   0  0  0  0  0  0  0  0  0  0  0  0
  -18.6483   12.6232  -23.6202 C   0  0  0  0  0  0  0  0  0  0  0  0
  -18.7026   11.3692  -22.9363 N   0  0  0  0  0  4  0  0  0  0  0  0
  -20.0541   10.8333  -22.9674 C   0  0  0  0  0  0  0  0  0  0  0  0
  -20.1288    9.4850  -22.2998 C   0  0  0  0  0  0  0  0  0  0  0  0
  -21.2732    9.3367  -21.4590 N   0  0  0  0  0  4  0  0  0  0  0  0
  -22.5110    9.5877  -22.1936 C   0  0  0  0  0  0  0  0  0  0  0  0
  -23.6226    9.6978  -21.1735 C   0  0  0  0  0  0  0  0  0  0  0  0
  -23.7256    8.4976  -20.4625 O   0  0  0  0  0  0  0  0  0  0  0  0
  -22.5571    8.1936  -19.8032 C   0  0  0  0  0  0  0  0  0  0  0  0
  -21.4168    8.0598  -20.8221 C   0  0  0  0  0  0  0  0  0  0  0  0
  -16.8016   13.9920  -24.5158 C   0  0  0  0  0  0  0  0  0  0  0  0
  -15.6872   14.1754  -25.3102 C   0  0  0  0  0  0  0  0  0  0  0  0
  -15.1662   13.1577  -26.1189 C   0  0  0  0  0  0  0  0  0  0  0  0
  -13.9827   13.4250  -26.9308 C   0  0  0  0  0  0  0  0  0  0  0  0
  -13.4167   14.6284  -27.2820 C   0  0  0  0  0  0  0  0  0  0  0  0
  -12.2832   14.4210  -28.0786 C   0  0  0  0  0  0  0  0  0  0  0  0
  -11.3630   15.2460  -28.6908 C   0  0  0  0  0  0  0  0  0  0  0  0
  -11.5357   16.6477  -28.5242 N   0  0  0  0  0  4  0  0  0  0  0  0
  -10.2887   17.1935  -27.9879 C   0  0  2  0  0  0  0  0  0  0  0  0
  -10.4686   18.4697  -27.2423 C   0  0  0  0  0  0  0  0  0  0  0  0
   -9.2536   18.9913  -26.8103 O   0  0  0  0  0  0  0  0  0  0  0  0
   -9.2637   17.2887  -29.0386 C   0  0  0  0  0  0  0  0  0  0  0  0
   -7.9133   17.3865  -28.8415 C   0  0  0  0  0  0  0  0  0  0  0  0
   -6.9858   17.4591  -29.8872 C   0  0  0  0  0  0  0  0  0  0  0  0
   -7.4300   17.4331  -31.1862 C   0  0  0  0  0  0  0  0  0  0  0  0
   -8.7886   17.3354  -31.4001 C   0  0  0  0  0  0  0  0  0  0  0  0
   -9.6921   17.2643  -30.3710 C   0  0  0  0  0  0  0  0  0  0  0  0
  -10.3464   14.7307  -29.4178 N   0  0  0  0  0  0  0  0  0  0  0  0
  -10.2578   13.3925  -29.5269 C   0  0  0  0  0  0  0  0  0  0  0  0
  -11.1540   12.5862  -28.9308 N   0  0  0  0  0  0  0  0  0  0  0  0
  -12.1890   13.0531  -28.1927 C   0  0  0  0  0  0  0  0  0  0  0  0
  -13.1947   12.4828  -27.5130 N   0  0  0  0  0  0  0  0  0  0  0  0
  1  2  1  0
  2  3  1  0
  3  4  2  0
  4  5  1  0
  5  6  1  0
  6  7  1  0
  7  8  1  0
  8  9  1  0
 10  9  1  0
 10 11  1  0
 11 12  1  0
 12 13  1  0
 13 14  1  0
 14 15  1  0
  5 16  2  0
 16 17  1  0
 17 18  2  0
 18 19  1  0
 19 20  2  0
 20 21  1  0
 21 22  2  0
 22 23  1  0
 23 24  1  0
 24 25  1  6
 25 26  1  0
 24 27  1  0
 27 28  2  0
 28 29  1  0
 29 30  2  0
 30 31  1  0
 31 32  2  0
 22 33  1  0
 33 34  2  0
 34 35  1  0
 35 36  2  0
 36 37  1  0
 18  3  1  0
 37 19  1  0
 15 10  1  0
 36 21  1  0
 32 27  1  0
M  CHG  3   7   1  10   1  23   1
M  END
$$$$
CHEMBL4787951_diffdock_9
     RDKit          3D

 37 41  0  0  0  0  0  0  0  0999 V2000
  -15.6172   10.1824  -28.0090 C   0  0  0  0  0  0  0  0  0  0  0  0
  -14.9846   11.2654  -27.4024 O   0  0  0  0  0  0  0  0  0  0  0  0
  -15.6064   12.2281  -26.6272 C   0  0  0  0  0  0  0  0  0  0  0  0
  -16.8235   11.9351  -25.9994 C   0  0  0  0  0  0  0  0  0  0  0  0
  -17.4750   12.8555  -25.2237 C   0  0  0  0  0  0  0  0  0  0  0  0
  -18.7649   12.5827  -24.5422 C   0  0  0  0  0  0  0  0  0  0  0  0
  -18.6703   12.5599  -23.1161 N   0  0  0  0  0  4  0  0  0  0  0  0
  -19.9661   12.2621  -22.5271 C   0  0  0  0  0  0  0  0  0  0  0  0
  -19.8604   12.0473  -21.0400 C   0  0  0  0  0  0  0  0  0  0  0  0
  -21.1238   11.8265  -20.4127 N   0  0  0  0  0  4  0  0  0  0  0  0
  -21.8333   13.0832  -20.1849 C   0  0  0  0  0  0  0  0  0  0  0  0
  -22.9982   12.7801  -19.2687 C   0  0  0  0  0  0  0  0  0  0  0  0
  -23.8499   11.8571  -19.8845 O   0  0  0  0  0  0  0  0  0  0  0  0
  -23.2021   10.6777  -20.1711 C   0  0  0  0  0  0  0  0  0  0  0  0
  -22.0247   10.9592  -21.1149 C   0  0  0  0  0  0  0  0  0  0  0  0
  -16.8886   14.0917  -25.0795 C   0  0  0  0  0  0  0  0  0  0  0  0
  -15.6885   14.3810  -25.6983 C   0  0  0  0  0  0  0  0  0  0  0  0
  -15.0111   13.4494  -26.4946 C   0  0  0  0  0  0  0  0  0  0  0  0
  -13.7447   13.8265  -27.1155 C   0  0  0  0  0  0  0  0  0  0  0  0
  -13.1049   15.0440  -27.1273 C   0  0  0  0  0  0  0  0  0  0  0  0
  -11.9065   14.9590  -27.8477 C   0  0  0  0  0  0  0  0  0  0  0  0
  -10.9021   15.8479  -28.1690 C   0  0  0  0  0  0  0  0  0  0  0  0
  -11.0409   17.1825  -27.6981 N   0  0  0  0  0  4  0  0  0  0  0  0
   -9.9472   17.9740  -28.2617 C   0  0  2  0  0  0  0  0  0  0  0  0
   -9.8551   19.3494  -27.6990 C   0  0  0  0  0  0  0  0  0  0  0  0
   -9.1950   19.3637  -26.4747 O   0  0  0  0  0  0  0  0  0  0  0  0
   -9.9961   17.9634  -29.7318 C   0  0  0  0  0  0  0  0  0  0  0  0
   -8.9183   17.9616  -30.5747 C   0  0  0  0  0  0  0  0  0  0  0  0
   -9.0318   17.9363  -31.9695 C   0  0  0  0  0  0  0  0  0  0  0  0
  -10.2783   17.9120  -32.5449 C   0  0  0  0  0  0  0  0  0  0  0  0
  -11.3738   17.9141  -31.7076 C   0  0  0  0  0  0  0  0  0  0  0  0
  -11.2558   17.9387  -30.3417 C   0  0  0  0  0  0  0  0  0  0  0  0
   -9.8375   15.4543  -28.9035 N   0  0  0  0  0  0  0  0  0  0  0  0
   -9.7857   14.1730  -29.3114 C   0  0  0  0  0  0  0  0  0  0  0  0
  -10.7640   13.3047  -28.9992 N   0  0  0  0  0  0  0  0  0  0  0  0
  -11.8496   13.6497  -28.2668 C   0  0  0  0  0  0  0  0  0  0  0  0
  -12.9368   12.9979  -27.8286 N   0  0  0  0  0  0  0  0  0  0  0  0
  1  2  1  0
  2  3  1  0
  3  4  2  0
  4  5  1  0
  5  6  1  0
  6  7  1  0
  7  8  1  0
  8  9  1  0
 10  9  1  0
 10 11  1  0
 11 12  1  0
 12 13  1  0
 13 14  1  0
 14 15  1  0
  5 16  2  0
 16 17  1  0
 17 18  2  0
 18 19  1  0
 19 20  2  0
 20 21  1  0
 21 22  2  0
 22 23  1  0
 23 24  1  0
 24 25  1  1
 25 26  1  0
 24 27  1  0
 27 28  2  0
 28 29  1  0
 29 30  2  0
 30 31  1  0
 31 32  2  0
 22 33  1  0
 33 34  2  0
 34 35  1  0
 35 36  2  0
 36 37  1  0
 18  3  1  0
 37 19  1  0
 15 10  1  0
 36 21  1  0
 32 27  1  0
M  CHG  3   7   1  10   1  23   1
M  END
$$$$
CHEMBL4787951_diffdock_10
     RDKit          3D

 37 41  0  0  0  0  0  0  0  0999 V2000
  -16.1496   15.2308  -25.3194 C   0  0  0  0  0  0  0  0  0  0  0  0
  -15.1779   14.2476  -25.4930 O   0  0  0  0  0  0  0  0  0  0  0  0
  -15.4148   12.8858  -25.5552 C   0  0  0  0  0  0  0  0  0  0  0  0
  -16.4132   12.3169  -24.7545 C   0  0  0  0  0  0  0  0  0  0  0  0
  -16.6828   10.9754  -24.7821 C   0  0  0  0  0  0  0  0  0  0  0  0
  -17.7322   10.3359  -23.9498 C   0  0  0  0  0  0  0  0  0  0  0  0
  -19.0555   10.4978  -24.4653 N   0  0  0  0  0  4  0  0  0  0  0  0
  -19.8988   11.1744  -23.4927 C   0  0  0  0  0  0  0  0  0  0  0  0
  -21.1574   10.3945  -23.2160 C   0  0  0  0  0  0  0  0  0  0  0  0
  -22.2386   11.2125  -22.7680 N   0  0  0  0  0  4  0  0  0  0  0  0
  -23.4215   10.4118  -22.4610 C   0  0  0  0  0  0  0  0  0  0  0  0
  -24.5781   11.3709  -22.2857 C   0  0  0  0  0  0  0  0  0  0  0  0
  -24.3057   12.2438  -21.2271 O   0  0  0  0  0  0  0  0  0  0  0  0
  -23.1624   12.9755  -21.4508 C   0  0  0  0  0  0  0  0  0  0  0  0
  -21.9708   12.0219  -21.6148 C   0  0  0  0  0  0  0  0  0  0  0  0
  -15.9326   10.1953  -25.6315 C   0  0  0  0  0  0  0  0  0  0  0  0
  -14.9482   10.7558  -26.4211 C   0  0  0  0  0  0  0  0  0  0  0  0
  -14.6615   12.1263  -26.4032 C   0  0  0  0  0  0  0  0  0  0  0  0
  -13.6072   12.6475  -27.2683 C   0  0  0  0  0  0  0  0  0  0  0  0
  -13.1776   13.9428  -27.4401 C   0  0  0  0  0  0  0  0  0  0  0  0
  -12.1361   13.9919  -28.3756 C   0  0  0  0  0  0  0  0  0  0  0  0
  -11.3596   14.9979  -28.9116 C   0  0  0  0  0  0  0  0  0  0  0  0
  -11.6136   16.3232  -28.4631 N   0  0  0  0  0  4  0  0  0  0  0  0
  -10.3444   16.8974  -28.0161 C   0  0  2  0  0  0  0  0  0  0  0  0
  -10.5047   18.0153  -27.0458 C   0  0  0  0  0  0  0  0  0  0  0  0
   -9.2765   18.5221  -26.6339 O   0  0  0  0  0  0  0  0  0  0  0  0
   -9.4991   17.2583  -29.1645 C   0  0  0  0  0  0  0  0  0  0  0  0
   -8.1373   17.3898  -29.1540 C   0  0  0  0  0  0  0  0  0  0  0  0
   -7.3871   17.7222  -30.2879 C   0  0  0  0  0  0  0  0  0  0  0  0
   -8.0284   17.9325  -31.4837 C   0  0  0  0  0  0  0  0  0  0  0  0
   -9.4010   17.8040  -31.5091 C   0  0  0  0  0  0  0  0  0  0  0  0
  -10.1302   17.4777  -30.3946 C   0  0  0  0  0  0  0  0  0  0  0  0
  -10.4027   14.7219  -29.8259 N   0  0  0  0  0  0  0  0  0  0  0  0
  -10.2297   13.4401  -30.1974 C   0  0  0  0  0  0  0  0  0  0  0  0
  -10.9858   12.4578  -29.6760 N   0  0  0  0  0  0  0  0  0  0  0  0
  -11.9560   12.6827  -28.7583 C   0  0  0  0  0  0  0  0  0  0  0  0
  -12.8278   11.9057  -28.0989 N   0  0  0  0  0  0  0  0  0  0  0  0
  1  2  1  0
  2  3  1  0
  3  4  2  0
  4  5  1  0
  5  6  1  0
  6  7  1  0
  7  8  1  0
  8  9  1  0
 10  9  1  0
 10 11  1  0
 11 12  1  0
 12 13  1  0
 13 14  1  0
 14 15  1  0
  5 16  2  0
 16 17  1  0
 17 18  2  0
 18 19  1  0
 19 20  2  0
 20 21  1  0
 21 22  2  0
 22 23  1  0
 23 24  1  0
 24 25  1  6
 25 26  1  0
 24 27  1  0
 27 28  2  0
 28 29  1  0
 29 30  2  0
 30 31  1  0
 31 32  2  0
 22 33  1  0
 33 34  2  0
 34 35  1  0
 35 36  2  0
 36 37  1  0
 18  3  1  0
 37 19  1  0
 15 10  1  0
 36 21  1  0
 32 27  1  0
M  CHG  3   7   1  10   1  23   1
M  END
$$$$
CHEMBL3960853_diffdock_1
     RDKit          3D

 33 37  0  0  0  0  0  0  0  0999 V2000
  -10.6055   19.4639  -28.4240 C   0  0  0  0  0  0  0  0  0  0  0  0
  -10.3507   18.1080  -29.0421 C   0  0  1  0  0  0  0  0  0  0  0  0
  -11.3652   17.1748  -28.5868 N   0  0  0  0  0  0  0  0  0  0  0  0
  -11.1904   15.7978  -28.9535 C   0  0  0  0  0  0  0  0  0  0  0  0
  -10.2234   15.4090  -29.8034 N   0  0  0  0  0  0  0  0  0  0  0  0
  -10.1554   14.0924  -30.0726 C   0  0  0  0  0  0  0  0  0  0  0  0
  -10.9889   13.1819  -29.5423 N   0  0  0  0  0  0  0  0  0  0  0  0
  -11.9671   13.5555  -28.6857 C   0  0  0  0  0  0  0  0  0  0  0  0
  -12.9046   12.8936  -28.0303 O   0  0  0  0  0  0  0  0  0  0  0  0
  -13.6413   13.6936  -27.3009 C   0  0  0  0  0  0  0  0  0  0  0  0
  -14.7716   13.3109  -26.4432 C   0  0  0  0  0  0  0  0  0  0  0  0
  -15.4140   14.2295  -25.6673 C   0  0  0  0  0  0  0  0  0  0  0  0
  -16.4876   13.8251  -24.8634 C   0  0  0  0  0  0  0  0  0  0  0  0
  -16.9366   12.5280  -24.8147 C   0  0  0  0  0  0  0  0  0  0  0  0
  -18.0323   12.0807  -24.0294 N   0  0  0  0  0  0  0  0  0  0  0  0
  -17.9803   11.1815  -22.9245 C   0  0  0  0  0  0  0  0  0  0  0  0
  -18.0291   11.9678  -21.6355 C   0  0  0  0  0  0  0  0  0  0  0  0
  -18.8468   11.3593  -20.6233 N   0  0  0  0  0  4  0  0  0  0  0  0
  -18.9212   12.0958  -19.4022 C   0  0  0  0  0  0  0  0  0  0  0  0
  -19.8047   11.3617  -18.4107 C   0  0  0  0  0  0  0  0  0  0  0  0
  -20.5483   10.3499  -19.0182 O   0  0  0  0  0  0  0  0  0  0  0  0
  -21.2066   10.9480  -20.1159 C   0  0  0  0  0  0  0  0  0  0  0  0
  -20.1527   11.0892  -21.1969 C   0  0  0  0  0  0  0  0  0  0  0  0
  -16.2590   11.6073  -25.6203 C   0  0  0  0  0  0  0  0  0  0  0  0
  -15.2065   12.0054  -26.4076 C   0  0  0  0  0  0  0  0  0  0  0  0
  -13.1372   14.9614  -27.5052 C   0  0  0  0  0  0  0  0  0  0  0  0
  -12.0729   14.8964  -28.3818 C   0  0  0  0  0  0  0  0  0  0  0  0
  -10.2624   18.1619  -30.5073 C   0  0  0  0  0  0  0  0  0  0  0  0
   -9.2960   18.8605  -31.1999 C   0  0  0  0  0  0  0  0  0  0  0  0
   -9.2745   18.8666  -32.5761 C   0  0  0  0  0  0  0  0  0  0  0  0
  -10.2118   18.1794  -33.3145 C   0  0  0  0  0  0  0  0  0  0  0  0
  -11.1810   17.4788  -32.6250 C   0  0  0  0  0  0  0  0  0  0  0  0
  -11.1999   17.4746  -31.2476 C   0  0  0  0  0  0  0  0  0  0  0  0
  2  1  1  6
  2  3  1  0
  3  4  1  0
  4  5  2  0
  5  6  1  0
  6  7  2  0
  7  8  1  0
  8  9  1  0
  9 10  1  0
 10 11  1  0
 11 12  2  0
 12 13  1  0
 13 14  2  0
 14 15  1  0
 15 16  1  0
 16 17  1  0
 18 17  1  0
 18 19  1  0
 19 20  1  0
 20 21  1  0
 21 22  1  0
 22 23  1  0
 14 24  1  0
 24 25  2  0
 10 26  2  0
 26 27  1  0
  2 28  1  0
 28 29  2  0
 29 30  1  0
 30 31  2  0
 31 32  1  0
 32 33  2  0
 27  4  1  0
 33 28  1  0
 27  8  2  0
 25 11  1  0
 23 18  1  0
M  CHG  1  18   1
M  END
$$$$
CHEMBL3960853_diffdock_2
     RDKit          3D

 33 37  0  0  0  0  0  0  0  0999 V2000
  -10.6888   19.1596  -28.6284 C   0  0  0  0  0  0  0  0  0  0  0  0
  -10.4102   17.7888  -29.2017 C   0  0  1  0  0  0  0  0  0  0  0  0
  -11.3828   16.8446  -28.6819 N   0  0  0  0  0  0  0  0  0  0  0  0
  -11.2320   15.4736  -29.0803 C   0  0  0  0  0  0  0  0  0  0  0  0
  -10.2725   15.0879  -29.9400 N   0  0  0  0  0  0  0  0  0  0  0  0
  -10.2274   13.7768  -30.2394 C   0  0  0  0  0  0  0  0  0  0  0  0
  -11.0761   12.8688  -29.7292 N   0  0  0  0  0  0  0  0  0  0  0  0
  -12.0470   13.2394  -28.8631 C   0  0  0  0  0  0  0  0  0  0  0  0
  -12.9953   12.5789  -28.2220 O   0  0  0  0  0  0  0  0  0  0  0  0
  -13.7176   13.3745  -27.4736 C   0  0  0  0  0  0  0  0  0  0  0  0
  -14.8537   12.9917  -26.6237 C   0  0  0  0  0  0  0  0  0  0  0  0
  -15.2963   11.7033  -26.5719 C   0  0  0  0  0  0  0  0  0  0  0  0
  -16.3824   11.3784  -25.7490 C   0  0  0  0  0  0  0  0  0  0  0  0
  -17.0373   12.3061  -24.9764 C   0  0  0  0  0  0  0  0  0  0  0  0
  -18.1284   12.0152  -24.1147 N   0  0  0  0  0  0  0  0  0  0  0  0
  -18.6662   12.8622  -23.1021 C   0  0  0  0  0  0  0  0  0  0  0  0
  -19.1493   12.0176  -21.9465 C   0  0  0  0  0  0  0  0  0  0  0  0
  -20.1823   12.6449  -21.1702 N   0  0  0  0  0  4  0  0  0  0  0  0
  -21.5104   12.3263  -21.5866 C   0  0  0  0  0  0  0  0  0  0  0  0
  -22.5137   13.0426  -20.7019 C   0  0  0  0  0  0  0  0  0  0  0  0
  -21.9217   13.5644  -19.5517 O   0  0  0  0  0  0  0  0  0  0  0  0
  -21.2128   12.4984  -18.9539 C   0  0  0  0  0  0  0  0  0  0  0  0
  -19.9447   12.3423  -19.7704 C   0  0  0  0  0  0  0  0  0  0  0  0
  -16.5624   13.6194  -25.0495 C   0  0  0  0  0  0  0  0  0  0  0  0
  -15.4977   13.9362  -25.8570 C   0  0  0  0  0  0  0  0  0  0  0  0
  -13.1919   14.6378  -27.6494 C   0  0  0  0  0  0  0  0  0  0  0  0
  -12.1295   14.5746  -28.5284 C   0  0  0  0  0  0  0  0  0  0  0  0
  -10.3647   17.7883  -30.6698 C   0  0  0  0  0  0  0  0  0  0  0  0
  -11.2708   17.1280  -31.4727 C   0  0  0  0  0  0  0  0  0  0  0  0
  -11.1664   17.1712  -32.8444 C   0  0  0  0  0  0  0  0  0  0  0  0
  -10.1587   17.8716  -33.4687 C   0  0  0  0  0  0  0  0  0  0  0  0
   -9.2494   18.5340  -32.6686 C   0  0  0  0  0  0  0  0  0  0  0  0
   -9.3565   18.4889  -31.2960 C   0  0  0  0  0  0  0  0  0  0  0  0
  2  1  1  6
  2  3  1  0
  3  4  1  0
  4  5  2  0
  5  6  1  0
  6  7  2  0
  7  8  1  0
  8  9  1  0
  9 10  1  0
 10 11  1  0
 11 12  2  0
 12 13  1  0
 13 14  2  0
 14 15  1  0
 15 16  1  0
 16 17  1  0
 18 17  1  0
 18 19  1  0
 19 20  1  0
 20 21  1  0
 21 22  1  0
 22 23  1  0
 14 24  1  0
 24 25  2  0
 10 26  2  0
 26 27  1  0
  2 28  1  0
 28 29  2  0
 29 30  1  0
 30 31  2  0
 31 32  1  0
 32 33  2  0
 27  4  1  0
 33 28  1  0
 27  8  2  0
 25 11  1  0
 23 18  1  0
M  CHG  1  18   1
M  END
$$$$
CHEMBL3960853_diffdock_3
     RDKit          3D

 33 37  0  0  0  0  0  0  0  0999 V2000
  -10.5358   19.3212  -28.4500 C   0  0  0  0  0  0  0  0  0  0  0  0
  -10.1794   17.9574  -28.9961 C   0  0  1  0  0  0  0  0  0  0  0  0
  -11.1404   16.9816  -28.5145 N   0  0  0  0  0  0  0  0  0  0  0  0
  -10.9176   15.6135  -28.8884 C   0  0  0  0  0  0  0  0  0  0  0  0
   -9.8806   15.2519  -29.6646 N   0  0  0  0  0  0  0  0  0  0  0  0
   -9.7729   13.9411  -29.9489 C   0  0  0  0  0  0  0  0  0  0  0  0
  -10.6330   13.0110  -29.5017 N   0  0  0  0  0  0  0  0  0  0  0  0
  -11.6814   13.3572  -28.7200 C   0  0  0  0  0  0  0  0  0  0  0  0
  -12.6588   12.6722  -28.1524 O   0  0  0  0  0  0  0  0  0  0  0  0
  -13.4624   13.4499  -27.4712 C   0  0  0  0  0  0  0  0  0  0  0  0
  -14.6520   13.0381  -26.7129 C   0  0  0  0  0  0  0  0  0  0  0  0
  -15.3580   13.9317  -25.9636 C   0  0  0  0  0  0  0  0  0  0  0  0
  -16.4867   13.4999  -25.2552 C   0  0  0  0  0  0  0  0  0  0  0  0
  -16.9289   12.1998  -25.2761 C   0  0  0  0  0  0  0  0  0  0  0  0
  -18.0780   11.7255  -24.5890 N   0  0  0  0  0  0  0  0  0  0  0  0
  -18.2340   10.4549  -23.9617 C   0  0  0  0  0  0  0  0  0  0  0  0
  -17.7061   10.5257  -22.5480 C   0  0  0  0  0  0  0  0  0  0  0  0
  -18.2137    9.4883  -21.6938 N   0  0  0  0  0  4  0  0  0  0  0  0
  -18.5487    9.9202  -20.3746 C   0  0  0  0  0  0  0  0  0  0  0  0
  -19.0691    8.7472  -19.5649 C   0  0  0  0  0  0  0  0  0  0  0  0
  -19.3753    7.6487  -20.3683 O   0  0  0  0  0  0  0  0  0  0  0  0
  -20.2276    8.1298  -21.3872 C   0  0  0  0  0  0  0  0  0  0  0  0
  -19.3234    8.8441  -22.3728 C   0  0  0  0  0  0  0  0  0  0  0  0
  -16.1855   11.3050  -26.0523 C   0  0  0  0  0  0  0  0  0  0  0  0
  -15.0790   11.7300  -26.7460 C   0  0  0  0  0  0  0  0  0  0  0  0
  -12.9616   14.7274  -27.6140 C   0  0  0  0  0  0  0  0  0  0  0  0
  -11.8300   14.6912  -28.4037 C   0  0  0  0  0  0  0  0  0  0  0  0
  -10.0632   17.9472  -30.4603 C   0  0  0  0  0  0  0  0  0  0  0  0
  -10.9072   17.2507  -31.2995 C   0  0  0  0  0  0  0  0  0  0  0  0
  -10.7383   17.2869  -32.6650 C   0  0  0  0  0  0  0  0  0  0  0  0
   -9.7254   18.0159  -33.2468 C   0  0  0  0  0  0  0  0  0  0  0  0
   -8.8783   18.7146  -32.4102 C   0  0  0  0  0  0  0  0  0  0  0  0
   -9.0498   18.6764  -31.0440 C   0  0  0  0  0  0  0  0  0  0  0  0
  2  1  1  6
  2  3  1  0
  3  4  1  0
  4  5  2  0
  5  6  1  0
  6  7  2  0
  7  8  1  0
  8  9  1  0
  9 10  1  0
 10 11  1  0
 11 12  2  0
 12 13  1  0
 13 14  2  0
 14 15  1  0
 15 16  1  0
 16 17  1  0
 18 17  1  0
 18 19  1  0
 19 20  1  0
 20 21  1  0
 21 22  1  0
 22 23  1  0
 14 24  1  0
 24 25  2  0
 10 26  2  0
 26 27  1  0
  2 28  1  0
 28 29  2  0
 29 30  1  0
 30 31  2  0
 31 32  1  0
 32 33  2  0
 27  4  1  0
 33 28  1  0
 27  8  2  0
 25 11  1  0
 23 18  1  0
M  CHG  1  18   1
M  END
$$$$
CHEMBL3960853_diffdock_4
     RDKit          3D

 33 37  0  0  0  0  0  0  0  0999 V2000
  -10.7231   19.3149  -28.2100 C   0  0  0  0  0  0  0  0  0  0  0  0
  -10.3775   17.9655  -28.7974 C   0  0  1  0  0  0  0  0  0  0  0  0
  -11.3685   16.9913  -28.3775 N   0  0  0  0  0  0  0  0  0  0  0  0
  -11.1375   15.6264  -28.7582 C   0  0  0  0  0  0  0  0  0  0  0  0
  -10.1043   15.2763  -29.5446 N   0  0  0  0  0  0  0  0  0  0  0  0
   -9.9880   13.9675  -29.8345 C   0  0  0  0  0  0  0  0  0  0  0  0
  -10.8365   13.0286  -29.3834 N   0  0  0  0  0  0  0  0  0  0  0  0
  -11.8810   13.3632  -28.5914 C   0  0  0  0  0  0  0  0  0  0  0  0
  -12.8476   12.6680  -28.0180 O   0  0  0  0  0  0  0  0  0  0  0  0
  -13.6519   13.4365  -27.3271 C   0  0  0  0  0  0  0  0  0  0  0  0
  -14.8314   13.0120  -26.5601 C   0  0  0  0  0  0  0  0  0  0  0  0
  -15.2228   11.7065  -26.5287 C   0  0  0  0  0  0  0  0  0  0  0  0
  -16.3528   11.3417  -25.7855 C   0  0  0  0  0  0  0  0  0  0  0  0
  -17.1013   12.2461  -25.0727 C   0  0  0  0  0  0  0  0  0  0  0  0
  -18.2406   11.9153  -24.2916 N   0  0  0  0  0  0  0  0  0  0  0  0
  -18.9117   12.7602  -23.3600 C   0  0  0  0  0  0  0  0  0  0  0  0
  -19.6273   11.9094  -22.3370 C   0  0  0  0  0  0  0  0  0  0  0  0
  -20.3585   12.6743  -21.3656 N   0  0  0  0  0  4  0  0  0  0  0  0
  -19.8113   12.6329  -20.0474 C   0  0  0  0  0  0  0  0  0  0  0  0
  -20.6617   13.4696  -19.1098 C   0  0  0  0  0  0  0  0  0  0  0  0
  -21.5514   14.2925  -19.8007 O   0  0  0  0  0  0  0  0  0  0  0  0
  -20.7787   15.0052  -20.7446 C   0  0  0  0  0  0  0  0  0  0  0  0
  -20.5053   14.0273  -21.8707 C   0  0  0  0  0  0  0  0  0  0  0  0
  -16.6771   13.5777  -25.1232 C   0  0  0  0  0  0  0  0  0  0  0  0
  -15.5692   13.9337  -25.8526 C   0  0  0  0  0  0  0  0  0  0  0  0
  -13.1630   14.7186  -27.4695 C   0  0  0  0  0  0  0  0  0  0  0  0
  -12.0380   14.6948  -28.2691 C   0  0  0  0  0  0  0  0  0  0  0  0
  -10.2229   18.0071  -30.2575 C   0  0  0  0  0  0  0  0  0  0  0  0
  -11.0093   17.2972  -31.1403 C   0  0  0  0  0  0  0  0  0  0  0  0
  -10.8069   17.3845  -32.4989 C   0  0  0  0  0  0  0  0  0  0  0  0
   -9.8165   18.1799  -33.0303 C   0  0  0  0  0  0  0  0  0  0  0  0
   -9.0270   18.8922  -32.1500 C   0  0  0  0  0  0  0  0  0  0  0  0
   -9.2319   18.8027  -30.7907 C   0  0  0  0  0  0  0  0  0  0  0  0
  2  1  1  6
  2  3  1  0
  3  4  1  0
  4  5  2  0
  5  6  1  0
  6  7  2  0
  7  8  1  0
  8  9  1  0
  9 10  1  0
 10 11  1  0
 11 12  2  0
 12 13  1  0
 13 14  2  0
 14 15  1  0
 15 16  1  0
 16 17  1  0
 18 17  1  0
 18 19  1  0
 19 20  1  0
 20 21  1  0
 21 22  1  0
 22 23  1  0
 14 24  1  0
 24 25  2  0
 10 26  2  0
 26 27  1  0
  2 28  1  0
 28 29  2  0
 29 30  1  0
 30 31  2  0
 31 32  1  0
 32 33  2  0
 27  4  1  0
 33 28  1  0
 27  8  2  0
 25 11  1  0
 23 18  1  0
M  CHG  1  18   1
M  END
$$$$
CHEMBL3960853_diffdock_5
     RDKit          3D

 33 37  0  0  0  0  0  0  0  0999 V2000
  -10.7502   19.5500  -28.2120 C   0  0  0  0  0  0  0  0  0  0  0  0
  -10.3287   18.2406  -28.8391 C   0  0  1  0  0  0  0  0  0  0  0  0
  -11.2625   17.1996  -28.4497 N   0  0  0  0  0  0  0  0  0  0  0  0
  -10.9798   15.8698  -28.9111 C   0  0  0  0  0  0  0  0  0  0  0  0
   -9.9542   15.6120  -29.7418 N   0  0  0  0  0  0  0  0  0  0  0  0
   -9.7861   14.3278  -30.1066 C   0  0  0  0  0  0  0  0  0  0  0  0
  -10.5775   13.3267  -29.6864 N   0  0  0  0  0  0  0  0  0  0  0  0
  -11.6136   13.5681  -28.8507 C   0  0  0  0  0  0  0  0  0  0  0  0
  -12.5307   12.7979  -28.2920 O   0  0  0  0  0  0  0  0  0  0  0  0
  -13.3496   13.4890  -27.5394 C   0  0  0  0  0  0  0  0  0  0  0  0
  -14.4863   12.9682  -26.7671 C   0  0  0  0  0  0  0  0  0  0  0  0
  -14.8039   11.6425  -26.7819 C   0  0  0  0  0  0  0  0  0  0  0  0
  -15.8950   11.1850  -26.0318 C   0  0  0  0  0  0  0  0  0  0  0  0
  -16.6764   12.0165  -25.2673 C   0  0  0  0  0  0  0  0  0  0  0  0
  -17.7778   11.5909  -24.4778 N   0  0  0  0  0  0  0  0  0  0  0  0
  -18.3226   12.2580  -23.3419 C   0  0  0  0  0  0  0  0  0  0  0  0
  -18.0080   11.4641  -22.0957 C   0  0  0  0  0  0  0  0  0  0  0  0
  -19.1750   11.0730  -21.3551 N   0  0  0  0  0  4  0  0  0  0  0  0
  -18.9262   10.1225  -20.3190 C   0  0  0  0  0  0  0  0  0  0  0  0
  -20.2235    9.7827  -19.6090 C   0  0  0  0  0  0  0  0  0  0  0  0
  -21.2447   10.6798  -19.9226 O   0  0  0  0  0  0  0  0  0  0  0  0
  -20.7233   11.9710  -19.6842 C   0  0  0  0  0  0  0  0  0  0  0  0
  -19.8279   12.2753  -20.8695 C   0  0  0  0  0  0  0  0  0  0  0  0
  -16.3280   13.3708  -25.2711 C   0  0  0  0  0  0  0  0  0  0  0  0
  -15.2581   13.8177  -26.0073 C   0  0  0  0  0  0  0  0  0  0  0  0
  -12.9244   14.7987  -27.6231 C   0  0  0  0  0  0  0  0  0  0  0  0
  -11.8225   14.8714  -28.4513 C   0  0  0  0  0  0  0  0  0  0  0  0
  -10.1773   18.3347  -30.2970 C   0  0  0  0  0  0  0  0  0  0  0  0
  -11.0110   17.7149  -31.2040 C   0  0  0  0  0  0  0  0  0  0  0  0
  -10.8087   17.8472  -32.5590 C   0  0  0  0  0  0  0  0  0  0  0  0
   -9.7714   18.5996  -33.0626 C   0  0  0  0  0  0  0  0  0  0  0  0
   -8.9344   19.2217  -32.1581 C   0  0  0  0  0  0  0  0  0  0  0  0
   -9.1394   19.0875  -30.8026 C   0  0  0  0  0  0  0  0  0  0  0  0
  2  1  1  6
  2  3  1  0
  3  4  1  0
  4  5  2  0
  5  6  1  0
  6  7  2  0
  7  8  1  0
  8  9  1  0
  9 10  1  0
 10 11  1  0
 11 12  2  0
 12 13  1  0
 13 14  2  0
 14 15  1  0
 15 16  1  0
 16 17  1  0
 18 17  1  0
 18 19  1  0
 19 20  1  0
 20 21  1  0
 21 22  1  0
 22 23  1  0
 14 24  1  0
 24 25  2  0
 10 26  2  0
 26 27  1  0
  2 28  1  0
 28 29  2  0
 29 30  1  0
 30 31  2  0
 31 32  1  0
 32 33  2  0
 27  4  1  0
 33 28  1  0
 27  8  2  0
 25 11  1  0
 23 18  1  0
M  CHG  1  18   1
M  END
$$$$
CHEMBL3960853_diffdock_6
     RDKit          3D

 33 37  0  0  0  0  0  0  0  0999 V2000
  -10.3887   18.6517  -28.9645 C   0  0  0  0  0  0  0  0  0  0  0  0
  -10.2743   17.3116  -29.6548 C   0  0  1  0  0  0  0  0  0  0  0  0
  -11.3433   16.4430  -29.1964 N   0  0  0  0  0  0  0  0  0  0  0  0
  -11.2802   15.0676  -29.6033 C   0  0  0  0  0  0  0  0  0  0  0  0
  -10.4171   14.6471  -30.5450 N   0  0  0  0  0  0  0  0  0  0  0  0
  -10.4481   13.3356  -30.8440 C   0  0  0  0  0  0  0  0  0  0  0  0
  -11.2806   12.4594  -30.2571 N   0  0  0  0  0  0  0  0  0  0  0  0
  -12.1551   12.8653  -29.3081 C   0  0  0  0  0  0  0  0  0  0  0  0
  -13.0658   12.2401  -28.5826 O   0  0  0  0  0  0  0  0  0  0  0  0
  -13.6876   13.0615  -27.7742 C   0  0  0  0  0  0  0  0  0  0  0  0
  -14.7560   12.7206  -26.8245 C   0  0  0  0  0  0  0  0  0  0  0  0
  -15.3194   13.6687  -26.0230 C   0  0  0  0  0  0  0  0  0  0  0  0
  -16.3358   13.3038  -25.1307 C   0  0  0  0  0  0  0  0  0  0  0  0
  -16.8045   12.0177  -25.0186 C   0  0  0  0  0  0  0  0  0  0  0  0
  -17.8453   11.6101  -24.1422 N   0  0  0  0  0  0  0  0  0  0  0  0
  -18.8771   10.6671  -24.4222 C   0  0  0  0  0  0  0  0  0  0  0  0
  -20.1215   11.4018  -24.8626 C   0  0  0  0  0  0  0  0  0  0  0  0
  -21.3400   10.7775  -24.4279 N   0  0  0  0  0  4  0  0  0  0  0  0
  -21.3630   10.4264  -23.0440 C   0  0  0  0  0  0  0  0  0  0  0  0
  -22.6898    9.7757  -22.6994 C   0  0  0  0  0  0  0  0  0  0  0  0
  -23.6408    9.9576  -23.7036 O   0  0  0  0  0  0  0  0  0  0  0  0
  -23.6768   11.3452  -23.9670 C   0  0  0  0  0  0  0  0  0  0  0  0
  -22.4490   11.6333  -24.8089 C   0  0  0  0  0  0  0  0  0  0  0  0
  -16.2085   11.0663  -25.8524 C   0  0  0  0  0  0  0  0  0  0  0  0
  -15.2119   11.4256  -26.7263 C   0  0  0  0  0  0  0  0  0  0  0  0
  -13.1331   14.3044  -27.9997 C   0  0  0  0  0  0  0  0  0  0  0  0
  -12.1573   14.2023  -28.9707 C   0  0  0  0  0  0  0  0  0  0  0  0
  -10.2434   17.4302  -31.1185 C   0  0  0  0  0  0  0  0  0  0  0  0
  -11.2091   16.9156  -31.9579 C   0  0  0  0  0  0  0  0  0  0  0  0
  -11.1150   17.0648  -33.3229 C   0  0  0  0  0  0  0  0  0  0  0  0
  -10.0589   17.7302  -33.9040 C   0  0  0  0  0  0  0  0  0  0  0  0
   -9.0901   18.2469  -33.0673 C   0  0  0  0  0  0  0  0  0  0  0  0
   -9.1869   18.0960  -31.7016 C   0  0  0  0  0  0  0  0  0  0  0  0
  2  1  1  1
  2  3  1  0
  3  4  1  0
  4  5  2  0
  5  6  1  0
  6  7  2  0
  7  8  1  0
  8  9  1  0
  9 10  1  0
 10 11  1  0
 11 12  2  0
 12 13  1  0
 13 14  2  0
 14 15  1  0
 15 16  1  0
 16 17  1  0
 18 17  1  0
 18 19  1  0
 19 20  1  0
 20 21  1  0
 21 22  1  0
 22 23  1  0
 14 24  1  0
 24 25  2  0
 10 26  2  0
 26 27  1  0
  2 28  1  0
 28 29  2  0
 29 30  1  0
 30 31  2  0
 31 32  1  0
 32 33  2  0
 27  4  1  0
 33 28  1  0
 27  8  2  0
 25 11  1  0
 23 18  1  0
M  CHG  1  18   1
M  END
$$$$
CHEMBL3960853_diffdock_7
     RDKit          3D

 33 37  0  0  0  0  0  0  0  0999 V2000
  -10.5791   19.0829  -28.8145 C   0  0  0  0  0  0  0  0  0  0  0  0
  -10.2764   17.6746  -29.2730 C   0  0  1  0  0  0  0  0  0  0  0  0
  -11.2655   16.7670  -28.7203 N   0  0  0  0  0  0  0  0  0  0  0  0
  -11.1364   15.3795  -29.0658 C   0  0  0  0  0  0  0  0  0  0  0  0
  -10.2370   14.9564  -29.9717 N   0  0  0  0  0  0  0  0  0  0  0  0
  -10.2068   13.6332  -30.2139 C   0  0  0  0  0  0  0  0  0  0  0  0
  -11.0140   12.7481  -29.6054 N   0  0  0  0  0  0  0  0  0  0  0  0
  -11.9242   13.1564  -28.6917 C   0  0  0  0  0  0  0  0  0  0  0  0
  -12.8229   12.5244  -27.9571 O   0  0  0  0  0  0  0  0  0  0  0  0
  -13.4952   13.3521  -27.1971 C   0  0  0  0  0  0  0  0  0  0  0  0
  -14.5679   13.0068  -26.2539 C   0  0  0  0  0  0  0  0  0  0  0  0
  -14.9798   11.7174  -26.0919 C   0  0  0  0  0  0  0  0  0  0  0  0
  -16.0055   11.4288  -25.1824 C   0  0  0  0  0  0  0  0  0  0  0  0
  -16.6298   12.3939  -24.4306 C   0  0  0  0  0  0  0  0  0  0  0  0
  -17.6588   12.1417  -23.4844 N   0  0  0  0  0  0  0  0  0  0  0  0
  -18.1727   10.8686  -23.1008 C   0  0  0  0  0  0  0  0  0  0  0  0
  -19.4747   10.6150  -23.8239 C   0  0  0  0  0  0  0  0  0  0  0  0
  -20.2850    9.6017  -23.2075 N   0  0  0  0  0  4  0  0  0  0  0  0
  -21.5731    9.4336  -23.8003 C   0  0  0  0  0  0  0  0  0  0  0  0
  -22.3381    8.3451  -23.0707 C   0  0  0  0  0  0  0  0  0  0  0  0
  -21.5124    7.5916  -22.2362 O   0  0  0  0  0  0  0  0  0  0  0  0
  -20.4285    7.1635  -23.0348 C   0  0  0  0  0  0  0  0  0  0  0  0
  -19.5189    8.3692  -23.1695 C   0  0  0  0  0  0  0  0  0  0  0  0
  -16.1875   13.7073  -24.6175 C   0  0  0  0  0  0  0  0  0  0  0  0
  -15.1820   13.9884  -25.5097 C   0  0  0  0  0  0  0  0  0  0  0  0
  -12.9886   14.6068  -27.4659 C   0  0  0  0  0  0  0  0  0  0  0  0
  -11.9894   14.5053  -28.4128 C   0  0  0  0  0  0  0  0  0  0  0  0
  -10.1764   17.5648  -30.7343 C   0  0  0  0  0  0  0  0  0  0  0  0
   -9.1487   18.0990  -31.4827 C   0  0  0  0  0  0  0  0  0  0  0  0
   -9.1199   17.9571  -32.8515 C   0  0  0  0  0  0  0  0  0  0  0  0
  -10.1103   17.2797  -33.5267 C   0  0  0  0  0  0  0  0  0  0  0  0
  -11.1409   16.7433  -32.7812 C   0  0  0  0  0  0  0  0  0  0  0  0
  -11.1671   16.8870  -31.4115 C   0  0  0  0  0  0  0  0  0  0  0  0
  2  1  1  6
  2  3  1  0
  3  4  1  0
  4  5  2  0
  5  6  1  0
  6  7  2  0
  7  8  1  0
  8  9  1  0
  9 10  1  0
 10 11  1  0
 11 12  2  0
 12 13  1  0
 13 14  2  0
 14 15  1  0
 15 16  1  0
 16 17  1  0
 18 17  1  0
 18 19  1  0
 19 20  1  0
 20 21  1  0
 21 22  1  0
 22 23  1  0
 14 24  1  0
 24 25  2  0
 10 26  2  0
 26 27  1  0
  2 28  1  0
 28 29  2  0
 29 30  1  0
 30 31  2  0
 31 32  1  0
 32 33  2  0
 27  4  1  0
 33 28  1  0
 27  8  2  0
 25 11  1  0
 23 18  1  0
M  CHG  1  18   1
M  END
$$$$
CHEMBL3960853_diffdock_8
     RDKit          3D

 33 37  0  0  0  0  0  0  0  0999 V2000
  -10.1991   19.4286  -27.9157 C   0  0  0  0  0  0  0  0  0  0  0  0
   -9.8520   18.0726  -28.4868 C   0  0  1  0  0  0  0  0  0  0  0  0
  -10.8759   17.1159  -28.1076 N   0  0  0  0  0  0  0  0  0  0  0  0
  -10.6699   15.7529  -28.5090 C   0  0  0  0  0  0  0  0  0  0  0  0
   -9.6516   15.3982  -29.3126 N   0  0  0  0  0  0  0  0  0  0  0  0
   -9.5583   14.0917  -29.6210 C   0  0  0  0  0  0  0  0  0  0  0  0
  -10.4151   13.1595  -29.1717 N   0  0  0  0  0  0  0  0  0  0  0  0
  -11.4448   13.4989  -28.3626 C   0  0  0  0  0  0  0  0  0  0  0  0
  -12.4146   12.8104  -27.7864 O   0  0  0  0  0  0  0  0  0  0  0  0
  -13.1989   13.5815  -27.0756 C   0  0  0  0  0  0  0  0  0  0  0  0
  -14.3751   13.1642  -26.2997 C   0  0  0  0  0  0  0  0  0  0  0  0
  -15.0855   14.0585  -25.5554 C   0  0  0  0  0  0  0  0  0  0  0  0
  -16.2012   13.6214  -24.8297 C   0  0  0  0  0  0  0  0  0  0  0  0
  -16.6260   12.3153  -24.8285 C   0  0  0  0  0  0  0  0  0  0  0  0
  -17.7617   11.8352  -24.1234 N   0  0  0  0  0  0  0  0  0  0  0  0
  -18.0418   10.4812  -23.7763 C   0  0  0  0  0  0  0  0  0  0  0  0
  -17.6156   10.2313  -22.3486 C   0  0  0  0  0  0  0  0  0  0  0  0
  -18.6224    9.5839  -21.5546 N   0  0  0  0  0  4  0  0  0  0  0  0
  -19.4088   10.4714  -20.7592 C   0  0  0  0  0  0  0  0  0  0  0  0
  -20.4326    9.6817  -19.9651 C   0  0  0  0  0  0  0  0  0  0  0  0
  -20.5572    8.3708  -20.4253 O   0  0  0  0  0  0  0  0  0  0  0  0
  -20.7820    8.4603  -21.8173 C   0  0  0  0  0  0  0  0  0  0  0  0
  -19.4272    8.7532  -22.4319 C   0  0  0  0  0  0  0  0  0  0  0  0
  -15.8785   11.4201  -25.6001 C   0  0  0  0  0  0  0  0  0  0  0  0
  -14.7848   11.8502  -26.3107 C   0  0  0  0  0  0  0  0  0  0  0  0
  -12.6927   14.8580  -27.2073 C   0  0  0  0  0  0  0  0  0  0  0  0
  -11.5781   14.8282  -28.0210 C   0  0  0  0  0  0  0  0  0  0  0  0
   -9.6360   18.1091  -29.9392 C   0  0  0  0  0  0  0  0  0  0  0  0
   -8.5614   18.7233  -30.5473 C   0  0  0  0  0  0  0  0  0  0  0  0
   -8.4230   18.7181  -31.9167 C   0  0  0  0  0  0  0  0  0  0  0  0
   -9.3465   18.1029  -32.7319 C   0  0  0  0  0  0  0  0  0  0  0  0
  -10.4237   17.4869  -32.1272 C   0  0  0  0  0  0  0  0  0  0  0  0
  -10.5595   17.4938  -30.7564 C   0  0  0  0  0  0  0  0  0  0  0  0
  2  1  1  6
  2  3  1  0
  3  4  1  0
  4  5  2  0
  5  6  1  0
  6  7  2  0
  7  8  1  0
  8  9  1  0
  9 10  1  0
 10 11  1  0
 11 12  2  0
 12 13  1  0
 13 14  2  0
 14 15  1  0
 15 16  1  0
 16 17  1  0
 18 17  1  0
 18 19  1  0
 19 20  1  0
 20 21  1  0
 21 22  1  0
 22 23  1  0
 14 24  1  0
 24 25  2  0
 10 26  2  0
 26 27  1  0
  2 28  1  0
 28 29  2  0
 29 30  1  0
 30 31  2  0
 31 32  1  0
 32 33  2  0
 27  4  1  0
 33 28  1  0
 27  8  2  0
 25 11  1  0
 23 18  1  0
M  CHG  1  18   1
M  END
$$$$
CHEMBL3960853_diffdock_9
     RDKit          3D

 33 37  0  0  0  0  0  0  0  0999 V2000
  -10.1471   18.9442  -27.8953 C   0  0  0  0  0  0  0  0  0  0  0  0
   -9.9483   17.8001  -28.8631 C   0  0  1  0  0  0  0  0  0  0  0  0
  -10.9335   16.7681  -28.5950 N   0  0  0  0  0  0  0  0  0  0  0  0
  -10.7264   15.4950  -29.2254 C   0  0  0  0  0  0  0  0  0  0  0  0
   -9.7460   15.3022  -30.1256 N   0  0  0  0  0  0  0  0  0  0  0  0
   -9.6476   14.0668  -30.6496 C   0  0  0  0  0  0  0  0  0  0  0  0
  -10.4642   13.0524  -30.3188 N   0  0  0  0  0  0  0  0  0  0  0  0
  -11.4554   13.2288  -29.4153 C   0  0  0  0  0  0  0  0  0  0  0  0
  -12.3822   12.4313  -28.9137 O   0  0  0  0  0  0  0  0  0  0  0  0
  -13.1406   13.0557  -28.0478 C   0  0  0  0  0  0  0  0  0  0  0  0
  -14.2675   12.4876  -27.2946 C   0  0  0  0  0  0  0  0  0  0  0  0
  -15.1048   13.2812  -26.5681 C   0  0  0  0  0  0  0  0  0  0  0  0
  -16.1680   12.7015  -25.8639 C   0  0  0  0  0  0  0  0  0  0  0  0
  -16.4170   11.3508  -25.8668 C   0  0  0  0  0  0  0  0  0  0  0  0
  -17.4940   10.7258  -25.1834 N   0  0  0  0  0  0  0  0  0  0  0  0
  -18.5445   11.3746  -24.4707 C   0  0  0  0  0  0  0  0  0  0  0  0
  -19.8558   11.1324  -25.1806 C   0  0  0  0  0  0  0  0  0  0  0  0
  -20.8944   10.6452  -24.3161 N   0  0  0  0  0  4  0  0  0  0  0  0
  -21.5127    9.4365  -24.7582 C   0  0  0  0  0  0  0  0  0  0  0  0
  -22.5901    9.0190  -23.7747 C   0  0  0  0  0  0  0  0  0  0  0  0
  -22.5016    9.7177  -22.5706 O   0  0  0  0  0  0  0  0  0  0  0  0
  -21.1667    9.5774  -22.1296 C   0  0  0  0  0  0  0  0  0  0  0  0
  -20.3546   10.5413  -22.9726 C   0  0  0  0  0  0  0  0  0  0  0  0
  -15.5423   10.5612  -26.6199 C   0  0  0  0  0  0  0  0  0  0  0  0
  -14.5003   11.1311  -27.3095 C   0  0  0  0  0  0  0  0  0  0  0  0
  -12.6632   14.3487  -27.9917 C   0  0  0  0  0  0  0  0  0  0  0  0
  -11.5924   14.4804  -28.8528 C   0  0  0  0  0  0  0  0  0  0  0  0
   -9.9675   18.2359  -30.2657 C   0  0  0  0  0  0  0  0  0  0  0  0
   -8.9005   18.8287  -30.9073 C   0  0  0  0  0  0  0  0  0  0  0  0
   -8.9899   19.2125  -32.2261 C   0  0  0  0  0  0  0  0  0  0  0  0
  -10.1421   19.0217  -32.9555 C   0  0  0  0  0  0  0  0  0  0  0  0
  -11.2126   18.4287  -32.3169 C   0  0  0  0  0  0  0  0  0  0  0  0
  -11.1201   18.0456  -30.9970 C   0  0  0  0  0  0  0  0  0  0  0  0
  2  1  1  1
  2  3  1  0
  3  4  1  0
  4  5  2  0
  5  6  1  0
  6  7  2  0
  7  8  1  0
  8  9  1  0
  9 10  1  0
 10 11  1  0
 11 12  2  0
 12 13  1  0
 13 14  2  0
 14 15  1  0
 15 16  1  0
 16 17  1  0
 18 17  1  0
 18 19  1  0
 19 20  1  0
 20 21  1  0
 21 22  1  0
 22 23  1  0
 14 24  1  0
 24 25  2  0
 10 26  2  0
 26 27  1  0
  2 28  1  0
 28 29  2  0
 29 30  1  0
 30 31  2  0
 31 32  1  0
 32 33  2  0
 27  4  1  0
 33 28  1  0
 27  8  2  0
 25 11  1  0
 23 18  1  0
M  CHG  1  18   1
M  END
$$$$
CHEMBL3960853_diffdock_10
     RDKit          3D

 33 37  0  0  0  0  0  0  0  0999 V2000
   -8.5003   15.4259  -32.0182 C   0  0  0  0  0  0  0  0  0  0  0  0
   -8.9382   16.4300  -30.9764 C   0  0  1  0  0  0  0  0  0  0  0  0
  -10.0624   15.8908  -30.2330 N   0  0  0  0  0  0  0  0  0  0  0  0
  -10.8831   16.8326  -29.5254 C   0  0  0  0  0  0  0  0  0  0  0  0
  -10.6614   18.1572  -29.5955 N   0  0  0  0  0  0  0  0  0  0  0  0
  -11.4955   18.9429  -28.8903 C   0  0  0  0  0  0  0  0  0  0  0  0
  -12.5076   18.4703  -28.1437 N   0  0  0  0  0  0  0  0  0  0  0  0
  -12.7448   17.1410  -28.0619 C   0  0  0  0  0  0  0  0  0  0  0  0
  -13.6444   16.4147  -27.4218 O   0  0  0  0  0  0  0  0  0  0  0  0
  -13.4813   15.1349  -27.6459 C   0  0  0  0  0  0  0  0  0  0  0  0
  -14.2923   14.0362  -27.1028 C   0  0  0  0  0  0  0  0  0  0  0  0
  -14.0819   12.7450  -27.4861 C   0  0  0  0  0  0  0  0  0  0  0  0
  -14.8761   11.7256  -26.9452 C   0  0  0  0  0  0  0  0  0  0  0  0
  -15.8739   11.9620  -26.0315 C   0  0  0  0  0  0  0  0  0  0  0  0
  -16.6877   10.9565  -25.4448 N   0  0  0  0  0  0  0  0  0  0  0  0
  -17.7268   11.1495  -24.4882 C   0  0  0  0  0  0  0  0  0  0  0  0
  -18.5672    9.8971  -24.4015 C   0  0  0  0  0  0  0  0  0  0  0  0
  -19.0235    9.6036  -23.0714 N   0  0  0  0  0  4  0  0  0  0  0  0
  -20.1068   10.4196  -22.6249 C   0  0  0  0  0  0  0  0  0  0  0  0
  -20.5021   10.0247  -21.2141 C   0  0  0  0  0  0  0  0  0  0  0  0
  -19.9427    8.8047  -20.8338 O   0  0  0  0  0  0  0  0  0  0  0  0
  -20.2713    7.8842  -21.8540 C   0  0  0  0  0  0  0  0  0  0  0  0
  -19.3211    8.1847  -22.9968 C   0  0  0  0  0  0  0  0  0  0  0  0
  -16.0677   13.2953  -25.6569 C   0  0  0  0  0  0  0  0  0  0  0  0
  -15.2884   14.2935  -26.1884 C   0  0  0  0  0  0  0  0  0  0  0  0
  -12.3966   15.0355  -28.4924 C   0  0  0  0  0  0  0  0  0  0  0  0
  -11.9134   16.2985  -28.7695 C   0  0  0  0  0  0  0  0  0  0  0  0
   -7.8389   16.8478  -30.0963 C   0  0  0  0  0  0  0  0  0  0  0  0
   -7.6727   16.4051  -28.8009 C   0  0  0  0  0  0  0  0  0  0  0  0
   -6.6168   16.8400  -28.0326 C   0  0  0  0  0  0  0  0  0  0  0  0
   -5.6876   17.7301  -28.5226 C   0  0  0  0  0  0  0  0  0  0  0  0
   -5.8503   18.1757  -29.8190 C   0  0  0  0  0  0  0  0  0  0  0  0
   -6.9081   17.7387  -30.5855 C   0  0  0  0  0  0  0  0  0  0  0  0
  2  1  1  6
  2  3  1  0
  3  4  1  0
  4  5  2  0
  5  6  1  0
  6  7  2  0
  7  8  1  0
  8  9  1  0
  9 10  1  0
 10 11  1  0
 11 12  2  0
 12 13  1  0
 13 14  2  0
 14 15  1  0
 15 16  1  0
 16 17  1  0
 18 17  1  0
 18 19  1  0
 19 20  1  0
 20 21  1  0
 21 22  1  0
 22 23  1  0
 14 24  1  0
 24 25  2  0
 10 26  2  0
 26 27  1  0
  2 28  1  0
 28 29  2  0
 29 30  1  0
 30 31  2  0
 31 32  1  0
 32 33  2  0
 27  4  1  0
 33 28  1  0
 27  8  2  0
 25 11  1  0
 23 18  1  0
M  CHG  1  18   1
M  END
$$$$
CHEMBL29197_diffdock_1
     RDKit          3D

 22 24  0  0  0  0  0  0  0  0999 V2000
  -15.8356   11.2066  -26.8033 C   0  0  0  0  0  0  0  0  0  0  0  0
  -15.5861   12.5495  -26.4112 O   0  0  0  0  0  0  0  0  0  0  0  0
  -14.5899   13.2935  -27.0537 C   0  0  0  0  0  0  0  0  0  0  0  0
  -13.6585   12.6499  -27.8111 C   0  0  0  0  0  0  0  0  0  0  0  0
  -12.6778   13.4331  -28.4360 C   0  0  0  0  0  0  0  0  0  0  0  0
  -11.7537   12.8411  -29.1823 N   0  0  0  0  0  0  0  0  0  0  0  0
  -10.8078   13.5403  -29.7919 C   0  0  0  0  0  0  0  0  0  0  0  0
  -10.7962   14.8518  -29.6449 N   0  0  0  0  0  0  0  0  0  0  0  0
  -11.6636   15.5625  -28.9261 C   0  0  0  0  0  0  0  0  0  0  0  0
  -11.6032   16.9628  -28.7934 N   0  0  0  0  0  0  0  0  0  0  0  0
  -10.6417   17.7936  -29.4123 C   0  0  0  0  0  0  0  0  0  0  0  0
  -10.0149   18.8022  -28.6503 C   0  0  0  0  0  0  0  0  0  0  0  0
   -9.0711   19.6408  -29.1667 C   0  0  0  0  0  0  0  0  0  0  0  0
   -8.6979   19.5162  -30.4880 C   0  0  0  0  0  0  0  0  0  0  0  0
   -9.2654   18.5566  -31.2912 C   0  0  0  0  0  0  0  0  0  0  0  0
   -8.7705   18.3611  -33.1223 Br  0  0  0  0  0  0  0  0  0  0  0  0
  -10.2248   17.7254  -30.7132 C   0  0  0  0  0  0  0  0  0  0  0  0
  -12.6613   14.8117  -28.2853 C   0  0  0  0  0  0  0  0  0  0  0  0
  -13.6143   15.4100  -27.5176 C   0  0  0  0  0  0  0  0  0  0  0  0
  -14.6145   14.6589  -26.8749 C   0  0  0  0  0  0  0  0  0  0  0  0
  -15.5623   15.3000  -26.1072 O   0  0  0  0  0  0  0  0  0  0  0  0
  -15.3005   16.5237  -25.4930 C   0  0  0  0  0  0  0  0  0  0  0  0
  1  2  1  0
  2  3  1  0
  3  4  2  0
  4  5  1  0
  5  6  2  0
  6  7  1  0
  7  8  2  0
  8  9  1  0
  9 10  1  0
 10 11  1  0
 11 12  2  0
 12 13  1  0
 13 14  2  0
 14 15  1  0
 15 16  1  0
 15 17  2  0
  9 18  2  0
 18 19  1  0
 19 20  2  0
 20 21  1  0
 21 22  1  0
 20  3  1  0
 18  5  1  0
 17 11  1  0
M  END
$$$$
CHEMBL29197_diffdock_2
     RDKit          3D

 22 24  0  0  0  0  0  0  0  0999 V2000
  -15.8108   11.0149  -27.0319 C   0  0  0  0  0  0  0  0  0  0  0  0
  -15.5826   12.3409  -26.5746 O   0  0  0  0  0  0  0  0  0  0  0  0
  -14.5442   13.1023  -27.1228 C   0  0  0  0  0  0  0  0  0  0  0  0
  -13.5827   12.4856  -27.8648 C   0  0  0  0  0  0  0  0  0  0  0  0
  -12.5601   13.2855  -28.3943 C   0  0  0  0  0  0  0  0  0  0  0  0
  -11.6059   12.7197  -29.1228 N   0  0  0  0  0  0  0  0  0  0  0  0
  -10.6200   13.4355  -29.6433 C   0  0  0  0  0  0  0  0  0  0  0  0
  -10.5989   14.7368  -29.4245 N   0  0  0  0  0  0  0  0  0  0  0  0
  -11.4934   15.4215  -28.7139 C   0  0  0  0  0  0  0  0  0  0  0  0
  -11.4216   16.8115  -28.5019 N   0  0  0  0  0  0  0  0  0  0  0  0
  -10.4872   17.6765  -29.1156 C   0  0  0  0  0  0  0  0  0  0  0  0
   -9.9782   18.7682  -28.3808 C   0  0  0  0  0  0  0  0  0  0  0  0
   -9.0679   19.6451  -28.8937 C   0  0  0  0  0  0  0  0  0  0  0  0
   -8.6114   19.4774  -30.1837 C   0  0  0  0  0  0  0  0  0  0  0  0
   -9.0624   18.4366  -30.9592 C   0  0  0  0  0  0  0  0  0  0  0  0
   -8.4504   18.1798  -32.7468 Br  0  0  0  0  0  0  0  0  0  0  0  0
   -9.9923   17.5692  -30.3861 C   0  0  0  0  0  0  0  0  0  0  0  0
  -12.5334   14.6534  -28.1678 C   0  0  0  0  0  0  0  0  0  0  0  0
  -13.5175   15.2248  -27.4190 C   0  0  0  0  0  0  0  0  0  0  0  0
  -14.5601   14.4563  -26.8712 C   0  0  0  0  0  0  0  0  0  0  0  0
  -15.5385   15.0703  -26.1199 O   0  0  0  0  0  0  0  0  0  0  0  0
  -15.4983   16.4357  -25.8417 C   0  0  0  0  0  0  0  0  0  0  0  0
  1  2  1  0
  2  3  1  0
  3  4  2  0
  4  5  1  0
  5  6  2  0
  6  7  1  0
  7  8  2  0
  8  9  1  0
  9 10  1  0
 10 11  1  0
 11 12  2  0
 12 13  1  0
 13 14  2  0
 14 15  1  0
 15 16  1  0
 15 17  2  0
  9 18  2  0
 18 19  1  0
 19 20  2  0
 20 21  1  0
 21 22  1  0
 20  3  1  0
 18  5  1  0
 17 11  1  0
M  END
$$$$
CHEMBL29197_diffdock_3
     RDKit          3D

 22 24  0  0  0  0  0  0  0  0999 V2000
  -15.1567   10.8653  -26.0044 C   0  0  0  0  0  0  0  0  0  0  0  0
  -15.1913   12.2820  -25.8984 O   0  0  0  0  0  0  0  0  0  0  0  0
  -14.2382   13.0582  -26.5674 C   0  0  0  0  0  0  0  0  0  0  0  0
  -13.2318   12.4418  -27.2476 C   0  0  0  0  0  0  0  0  0  0  0  0
  -12.2979   13.2570  -27.9025 C   0  0  0  0  0  0  0  0  0  0  0  0
  -11.3035   12.6919  -28.5758 N   0  0  0  0  0  0  0  0  0  0  0  0
  -10.3979   13.4219  -29.2100 C   0  0  0  0  0  0  0  0  0  0  0  0
  -10.4989   14.7369  -29.1626 N   0  0  0  0  0  0  0  0  0  0  0  0
  -11.4455   15.4226  -28.5241 C   0  0  0  0  0  0  0  0  0  0  0  0
  -11.5047   16.8291  -28.4962 N   0  0  0  0  0  0  0  0  0  0  0  0
  -10.5978   17.6903  -29.1546 C   0  0  0  0  0  0  0  0  0  0  0  0
   -9.9503   18.7007  -28.4125 C   0  0  0  0  0  0  0  0  0  0  0  0
   -9.0554   19.5678  -28.9674 C   0  0  0  0  0  0  0  0  0  0  0  0
   -8.7553   19.4719  -30.3096 C   0  0  0  0  0  0  0  0  0  0  0  0
   -9.3471   18.5124  -31.0953 C   0  0  0  0  0  0  0  0  0  0  0  0
   -8.9530   18.3561  -32.9544 Br  0  0  0  0  0  0  0  0  0  0  0  0
  -10.2542   17.6514  -30.4779 C   0  0  0  0  0  0  0  0  0  0  0  0
  -12.3996   14.6394  -27.8562 C   0  0  0  0  0  0  0  0  0  0  0  0
  -13.4241   15.2098  -27.1629 C   0  0  0  0  0  0  0  0  0  0  0  0
  -14.3807   14.4261  -26.4933 C   0  0  0  0  0  0  0  0  0  0  0  0
  -15.4034   15.0395  -25.8031 O   0  0  0  0  0  0  0  0  0  0  0  0
  -15.5446   16.4263  -25.7844 C   0  0  0  0  0  0  0  0  0  0  0  0
  1  2  1  0
  2  3  1  0
  3  4  2  0
  4  5  1  0
  5  6  2  0
  6  7  1  0
  7  8  2  0
  8  9  1  0
  9 10  1  0
 10 11  1  0
 11 12  2  0
 12 13  1  0
 13 14  2  0
 14 15  1  0
 15 16  1  0
 15 17  2  0
  9 18  2  0
 18 19  1  0
 19 20  2  0
 20 21  1  0
 21 22  1  0
 20  3  1  0
 18  5  1  0
 17 11  1  0
M  END
$$$$
CHEMBL29197_diffdock_4
     RDKit          3D

 22 24  0  0  0  0  0  0  0  0999 V2000
  -15.6409   11.4399  -26.2788 C   0  0  0  0  0  0  0  0  0  0  0  0
  -15.5021   12.8353  -26.0483 O   0  0  0  0  0  0  0  0  0  0  0  0
  -14.5239   13.5648  -26.7335 C   0  0  0  0  0  0  0  0  0  0  0  0
  -13.6697   12.9146  -27.5720 C   0  0  0  0  0  0  0  0  0  0  0  0
  -12.7043   13.6832  -28.2374 C   0  0  0  0  0  0  0  0  0  0  0  0
  -11.8549   13.0843  -29.0628 N   0  0  0  0  0  0  0  0  0  0  0  0
  -10.9263   13.7698  -29.7132 C   0  0  0  0  0  0  0  0  0  0  0  0
  -10.8559   15.0744  -29.5266 N   0  0  0  0  0  0  0  0  0  0  0  0
  -11.6461   15.7907  -28.7288 C   0  0  0  0  0  0  0  0  0  0  0  0
  -11.5246   17.1828  -28.5571 N   0  0  0  0  0  0  0  0  0  0  0  0
  -10.6821   18.0219  -29.3212 C   0  0  0  0  0  0  0  0  0  0  0  0
  -10.0023   19.0787  -28.6792 C   0  0  0  0  0  0  0  0  0  0  0  0
   -9.1646   19.9288  -29.3396 C   0  0  0  0  0  0  0  0  0  0  0  0
   -8.9581   19.7679  -30.6931 C   0  0  0  0  0  0  0  0  0  0  0  0
   -9.5863   18.7606  -31.3852 C   0  0  0  0  0  0  0  0  0  0  0  0
   -9.3215   18.5141  -33.2574 Br  0  0  0  0  0  0  0  0  0  0  0  0
  -10.4319   17.9196  -30.6619 C   0  0  0  0  0  0  0  0  0  0  0  0
  -12.6262   15.0545  -28.0454 C   0  0  0  0  0  0  0  0  0  0  0  0
  -13.5028   15.6599  -27.1966 C   0  0  0  0  0  0  0  0  0  0  0  0
  -14.4854   14.9235  -26.5111 C   0  0  0  0  0  0  0  0  0  0  0  0
  -15.3552   15.5715  -25.6613 O   0  0  0  0  0  0  0  0  0  0  0  0
  -15.3377   16.9577  -25.5143 C   0  0  0  0  0  0  0  0  0  0  0  0
  1  2  1  0
  2  3  1  0
  3  4  2  0
  4  5  1  0
  5  6  2  0
  6  7  1  0
  7  8  2  0
  8  9  1  0
  9 10  1  0
 10 11  1  0
 11 12  2  0
 12 13  1  0
 13 14  2  0
 14 15  1  0
 15 16  1  0
 15 17  2  0
  9 18  2  0
 18 19  1  0
 19 20  2  0
 20 21  1  0
 21 22  1  0
 20  3  1  0
 18  5  1  0
 17 11  1  0
M  END
$$$$
CHEMBL29197_diffdock_5
     RDKit          3D

 22 24  0  0  0  0  0  0  0  0999 V2000
  -15.6719   10.9880  -27.1176 C   0  0  0  0  0  0  0  0  0  0  0  0
  -15.5401   12.3308  -26.6714 O   0  0  0  0  0  0  0  0  0  0  0  0
  -14.5731   13.1668  -27.2412 C   0  0  0  0  0  0  0  0  0  0  0  0
  -13.5607   12.6188  -27.9693 C   0  0  0  0  0  0  0  0  0  0  0  0
  -12.6129   13.4922  -28.5212 C   0  0  0  0  0  0  0  0  0  0  0  0
  -11.6123   12.9946  -29.2372 N   0  0  0  0  0  0  0  0  0  0  0  0
  -10.6936   13.7812  -29.7780 C   0  0  0  0  0  0  0  0  0  0  0  0
  -10.7877   15.0844  -29.5924 N   0  0  0  0  0  0  0  0  0  0  0  0
  -11.7393   15.7053  -28.8975 C   0  0  0  0  0  0  0  0  0  0  0  0
  -11.7908   17.1012  -28.7211 N   0  0  0  0  0  0  0  0  0  0  0  0
  -10.9621   18.0322  -29.3878 C   0  0  0  0  0  0  0  0  0  0  0  0
  -10.4224   19.1137  -28.6599 C   0  0  0  0  0  0  0  0  0  0  0  0
   -9.6074   20.0513  -29.2233 C   0  0  0  0  0  0  0  0  0  0  0  0
   -9.2838   19.9586  -30.5602 C   0  0  0  0  0  0  0  0  0  0  0  0
   -9.7724   18.9323  -31.3322 C   0  0  0  0  0  0  0  0  0  0  0  0
   -9.3434   18.7786  -33.1838 Br  0  0  0  0  0  0  0  0  0  0  0  0
  -10.6008   18.0007  -30.7065 C   0  0  0  0  0  0  0  0  0  0  0  0
  -12.7073   14.8625  -28.3297 C   0  0  0  0  0  0  0  0  0  0  0  0
  -13.7382   15.3635  -27.5936 C   0  0  0  0  0  0  0  0  0  0  0  0
  -14.7088   14.5201  -27.0241 C   0  0  0  0  0  0  0  0  0  0  0  0
  -15.7376   15.0641  -26.2864 O   0  0  0  0  0  0  0  0  0  0  0  0
  -15.6411   16.3355  -25.7230 C   0  0  0  0  0  0  0  0  0  0  0  0
  1  2  1  0
  2  3  1  0
  3  4  2  0
  4  5  1  0
  5  6  2  0
  6  7  1  0
  7  8  2  0
  8  9  1  0
  9 10  1  0
 10 11  1  0
 11 12  2  0
 12 13  1  0
 13 14  2  0
 14 15  1  0
 15 16  1  0
 15 17  2  0
  9 18  2  0
 18 19  1  0
 19 20  2  0
 20 21  1  0
 21 22  1  0
 20  3  1  0
 18  5  1  0
 17 11  1  0
M  END
$$$$
CHEMBL29197_diffdock_6
     RDKit          3D

 22 24  0  0  0  0  0  0  0  0999 V2000
  -15.1365   10.8929  -26.4432 C   0  0  0  0  0  0  0  0  0  0  0  0
  -15.1861   12.2952  -26.2182 O   0  0  0  0  0  0  0  0  0  0  0  0
  -14.2717   13.1402  -26.8573 C   0  0  0  0  0  0  0  0  0  0  0  0
  -13.3436   12.6064  -27.6993 C   0  0  0  0  0  0  0  0  0  0  0  0
  -12.4460   13.4884  -28.3175 C   0  0  0  0  0  0  0  0  0  0  0  0
  -11.5278   13.0047  -29.1448 N   0  0  0  0  0  0  0  0  0  0  0  0
  -10.6591   13.7999  -29.7516 C   0  0  0  0  0  0  0  0  0  0  0  0
  -10.7195   15.0976  -29.5191 N   0  0  0  0  0  0  0  0  0  0  0  0
  -11.5897   15.7047  -28.7141 C   0  0  0  0  0  0  0  0  0  0  0  0
  -11.6076   17.0950  -28.4923 N   0  0  0  0  0  0  0  0  0  0  0  0
  -10.7846   18.0313  -29.1584 C   0  0  0  0  0  0  0  0  0  0  0  0
  -10.3965   19.2067  -28.4811 C   0  0  0  0  0  0  0  0  0  0  0  0
   -9.5977   20.1569  -29.0467 C   0  0  0  0  0  0  0  0  0  0  0  0
   -9.1381   19.9827  -30.3348 C   0  0  0  0  0  0  0  0  0  0  0  0
   -9.4749   18.8626  -31.0559 C   0  0  0  0  0  0  0  0  0  0  0  0
   -8.8556   18.5946  -32.8393 Br  0  0  0  0  0  0  0  0  0  0  0  0
  -10.2936   17.9224  -30.4303 C   0  0  0  0  0  0  0  0  0  0  0  0
  -12.5054   14.8529  -28.0771 C   0  0  0  0  0  0  0  0  0  0  0  0
  -13.4517   15.3396  -27.2267 C   0  0  0  0  0  0  0  0  0  0  0  0
  -14.3697   14.4873  -26.5878 C   0  0  0  0  0  0  0  0  0  0  0  0
  -15.3134   15.0170  -25.7348 O   0  0  0  0  0  0  0  0  0  0  0  0
  -15.6237   16.3760  -25.7404 C   0  0  0  0  0  0  0  0  0  0  0  0
  1  2  1  0
  2  3  1  0
  3  4  2  0
  4  5  1  0
  5  6  2  0
  6  7  1  0
  7  8  2  0
  8  9  1  0
  9 10  1  0
 10 11  1  0
 11 12  2  0
 12 13  1  0
 13 14  2  0
 14 15  1  0
 15 16  1  0
 15 17  2  0
  9 18  2  0
 18 19  1  0
 19 20  2  0
 20 21  1  0
 21 22  1  0
 20  3  1  0
 18  5  1  0
 17 11  1  0
M  END
$$$$
CHEMBL29197_diffdock_7
     RDKit          3D

 22 24  0  0  0  0  0  0  0  0999 V2000
  -16.2050   11.4148  -27.0164 C   0  0  0  0  0  0  0  0  0  0  0  0
  -15.9794   12.7639  -26.6310 O   0  0  0  0  0  0  0  0  0  0  0  0
  -14.9882   13.5185  -27.2686 C   0  0  0  0  0  0  0  0  0  0  0  0
  -14.0439   12.8846  -28.0183 C   0  0  0  0  0  0  0  0  0  0  0  0
  -13.0687   13.6783  -28.6385 C   0  0  0  0  0  0  0  0  0  0  0  0
  -12.1325   13.0959  -29.3773 N   0  0  0  0  0  0  0  0  0  0  0  0
  -11.1912   13.8052  -29.9823 C   0  0  0  0  0  0  0  0  0  0  0  0
  -11.1966   15.1170  -29.8383 N   0  0  0  0  0  0  0  0  0  0  0  0
  -12.0772   15.8187  -29.1269 C   0  0  0  0  0  0  0  0  0  0  0  0
  -12.0348   17.2200  -28.9971 N   0  0  0  0  0  0  0  0  0  0  0  0
  -11.1608   18.0725  -29.7092 C   0  0  0  0  0  0  0  0  0  0  0  0
  -10.6275   19.2055  -29.0590 C   0  0  0  0  0  0  0  0  0  0  0  0
   -9.7712   20.0741  -29.6695 C   0  0  0  0  0  0  0  0  0  0  0  0
   -9.3968   19.8559  -30.9783 C   0  0  0  0  0  0  0  0  0  0  0  0
   -9.8761   18.7730  -31.6753 C   0  0  0  0  0  0  0  0  0  0  0  0
   -9.3773   18.4459  -33.4864 Br  0  0  0  0  0  0  0  0  0  0  0  0
  -10.7482   17.9163  -31.0038 C   0  0  0  0  0  0  0  0  0  0  0  0
  -13.0700   15.0573  -28.4910 C   0  0  0  0  0  0  0  0  0  0  0  0
  -14.0353   15.6456  -27.7310 C   0  0  0  0  0  0  0  0  0  0  0  0
  -15.0306   14.8839  -27.0932 C   0  0  0  0  0  0  0  0  0  0  0  0
  -15.9912   15.5151  -26.3333 O   0  0  0  0  0  0  0  0  0  0  0  0
  -16.0118   16.9010  -26.1843 C   0  0  0  0  0  0  0  0  0  0  0  0
  1  2  1  0
  2  3  1  0
  3  4  2  0
  4  5  1  0
  5  6  2  0
  6  7  1  0
  7  8  2  0
  8  9  1  0
  9 10  1  0
 10 11  1  0
 11 12  2  0
 12 13  1  0
 13 14  2  0
 14 15  1  0
 15 16  1  0
 15 17  2  0
  9 18  2  0
 18 19  1  0
 19 20  2  0
 20 21  1  0
 21 22  1  0
 20  3  1  0
 18  5  1  0
 17 11  1  0
M  END
$$$$
CHEMBL29197_diffdock_8
     RDKit          3D

 22 24  0  0  0  0  0  0  0  0999 V2000
   -7.9422   14.8349  -31.3808 C   0  0  0  0  0  0  0  0  0  0  0  0
   -8.5730   15.9177  -30.7106 O   0  0  0  0  0  0  0  0  0  0  0  0
   -9.7164   15.6917  -29.9359 C   0  0  0  0  0  0  0  0  0  0  0  0
  -10.1938   14.4230  -29.8028 C   0  0  0  0  0  0  0  0  0  0  0  0
  -11.3421   14.2416  -29.0190 C   0  0  0  0  0  0  0  0  0  0  0  0
  -11.8362   13.0193  -28.8662 N   0  0  0  0  0  0  0  0  0  0  0  0
  -12.9189   12.7998  -28.1348 C   0  0  0  0  0  0  0  0  0  0  0  0
  -13.5080   13.8271  -27.5523 N   0  0  0  0  0  0  0  0  0  0  0  0
  -13.1128   15.0968  -27.6276 C   0  0  0  0  0  0  0  0  0  0  0  0
  -13.7823   16.1606  -26.9932 N   0  0  0  0  0  0  0  0  0  0  0  0
  -14.8019   16.0127  -26.0255 C   0  0  0  0  0  0  0  0  0  0  0  0
  -15.5077   17.1555  -25.5934 C   0  0  0  0  0  0  0  0  0  0  0  0
  -16.5108   17.1003  -24.6706 C   0  0  0  0  0  0  0  0  0  0  0  0
  -16.8672   15.8866  -24.1226 C   0  0  0  0  0  0  0  0  0  0  0  0
  -16.2240   14.7310  -24.4954 C   0  0  0  0  0  0  0  0  0  0  0  0
  -16.6940   13.0382  -23.7541 Br  0  0  0  0  0  0  0  0  0  0  0  0
  -15.2063   14.8434  -25.4425 C   0  0  0  0  0  0  0  0  0  0  0  0
  -11.9648   15.3175  -28.4043 C   0  0  0  0  0  0  0  0  0  0  0  0
  -11.4498   16.5680  -28.5669 C   0  0  0  0  0  0  0  0  0  0  0  0
  -10.2997   16.7906  -29.3450 C   0  0  0  0  0  0  0  0  0  0  0  0
   -9.8077   18.0700  -29.4854 O   0  0  0  0  0  0  0  0  0  0  0  0
  -10.3798   19.1512  -28.8168 C   0  0  0  0  0  0  0  0  0  0  0  0
  1  2  1  0
  2  3  1  0
  3  4  2  0
  4  5  1  0
  5  6  2  0
  6  7  1  0
  7  8  2  0
  8  9  1  0
  9 10  1  0
 10 11  1  0
 11 12  2  0
 12 13  1  0
 13 14  2  0
 14 15  1  0
 15 16  1  0
 15 17  2  0
  9 18  2  0
 18 19  1  0
 19 20  2  0
 20 21  1  0
 21 22  1  0
 20  3  1  0
 18  5  1  0
 17 11  1  0
M  END
$$$$
CHEMBL29197_diffdock_9
     RDKit          3D

 22 24  0  0  0  0  0  0  0  0999 V2000
  -14.9440   10.8425  -26.5733 C   0  0  0  0  0  0  0  0  0  0  0  0
  -15.1661   12.2435  -26.4871 O   0  0  0  0  0  0  0  0  0  0  0  0
  -14.3134   13.1305  -27.1539 C   0  0  0  0  0  0  0  0  0  0  0  0
  -13.2824   12.6372  -27.8949 C   0  0  0  0  0  0  0  0  0  0  0  0
  -12.4518   13.5607  -28.5452 C   0  0  0  0  0  0  0  0  0  0  0  0
  -11.4371   13.1172  -29.2767 N   0  0  0  0  0  0  0  0  0  0  0  0
  -10.6261   13.9524  -29.9091 C   0  0  0  0  0  0  0  0  0  0  0  0
  -10.8435   15.2495  -29.8005 N   0  0  0  0  0  0  0  0  0  0  0  0
  -11.8230   15.8189  -29.1001 C   0  0  0  0  0  0  0  0  0  0  0  0
  -12.0078   17.2117  -29.0084 N   0  0  0  0  0  0  0  0  0  0  0  0
  -11.3003   18.1734  -29.7650 C   0  0  0  0  0  0  0  0  0  0  0  0
  -10.9817   19.4132  -29.1716 C   0  0  0  0  0  0  0  0  0  0  0  0
  -10.2947   20.3924  -29.8274 C   0  0  0  0  0  0  0  0  0  0  0  0
   -9.8841   20.1840  -31.1268 C   0  0  0  0  0  0  0  0  0  0  0  0
  -10.1584   19.0008  -31.7695 C   0  0  0  0  0  0  0  0  0  0  0  0
   -9.6046   18.6842  -33.5665 Br  0  0  0  0  0  0  0  0  0  0  0  0
  -10.8632   18.0334  -31.0534 C   0  0  0  0  0  0  0  0  0  0  0  0
  -12.6761   14.9248  -28.4348 C   0  0  0  0  0  0  0  0  0  0  0  0
  -13.7204   15.3701  -27.6821 C   0  0  0  0  0  0  0  0  0  0  0  0
  -14.5759   14.4754  -27.0149 C   0  0  0  0  0  0  0  0  0  0  0  0
  -15.6226   14.9637  -26.2634 O   0  0  0  0  0  0  0  0  0  0  0  0
  -15.9460   16.3197  -26.2537 C   0  0  0  0  0  0  0  0  0  0  0  0
  1  2  1  0
  2  3  1  0
  3  4  2  0
  4  5  1  0
  5  6  2  0
  6  7  1  0
  7  8  2  0
  8  9  1  0
  9 10  1  0
 10 11  1  0
 11 12  2  0
 12 13  1  0
 13 14  2  0
 14 15  1  0
 15 16  1  0
 15 17  2  0
  9 18  2  0
 18 19  1  0
 19 20  2  0
 20 21  1  0
 21 22  1  0
 20  3  1  0
 18  5  1  0
 17 11  1  0
M  END
$$$$
CHEMBL29197_diffdock_10
     RDKit          3D

 22 24  0  0  0  0  0  0  0  0999 V2000
   12.3875   24.3118   72.7873 C   0  0  0  0  0  0  0  0  0  0  0  0
   13.7850   24.2158   72.5483 O   0  0  0  0  0  0  0  0  0  0  0  0
   14.2702   23.3403   71.5703 C   0  0  0  0  0  0  0  0  0  0  0  0
   14.2404   23.7169   70.2617 C   0  0  0  0  0  0  0  0  0  0  0  0
   14.7351   22.8091   69.3146 C   0  0  0  0  0  0  0  0  0  0  0  0
   14.7226   23.1414   68.0297 N   0  0  0  0  0  0  0  0  0  0  0  0
   15.1796   22.3160   67.0996 C   0  0  0  0  0  0  0  0  0  0  0  0
   15.6540   21.1424   67.4728 N   0  0  0  0  0  0  0  0  0  0  0  0
   15.7215   20.6921   68.7245 C   0  0  0  0  0  0  0  0  0  0  0  0
   16.2296   19.4256   69.0709 N   0  0  0  0  0  0  0  0  0  0  0  0
   16.7185   18.4705   68.1507 C   0  0  0  0  0  0  0  0  0  0  0  0
   17.5410   17.4246   68.6203 C   0  0  0  0  0  0  0  0  0  0  0  0
   18.0474   16.4576   67.8023 C   0  0  0  0  0  0  0  0  0  0  0  0
   17.7565   16.4832   66.4550 C   0  0  0  0  0  0  0  0  0  0  0  0
   16.9619   17.4716   65.9260 C   0  0  0  0  0  0  0  0  0  0  0  0
   16.5434   17.5339   64.0667 Br  0  0  0  0  0  0  0  0  0  0  0  0
   16.4701   18.4353   66.8063 C   0  0  0  0  0  0  0  0  0  0  0  0
   15.2352   21.5747   69.7014 C   0  0  0  0  0  0  0  0  0  0  0  0
   15.2441   21.2431   71.0225 C   0  0  0  0  0  0  0  0  0  0  0  0
   14.7570   22.1265   72.0023 C   0  0  0  0  0  0  0  0  0  0  0  0
   14.7835   21.7559   73.3292 O   0  0  0  0  0  0  0  0  0  0  0  0
   14.0978   20.6325   73.7888 C   0  0  0  0  0  0  0  0  0  0  0  0
  1  2  1  0
  2  3  1  0
  3  4  2  0
  4  5  1  0
  5  6  2  0
  6  7  1  0
  7  8  2  0
  8  9  1  0
  9 10  1  0
 10 11  1  0
 11 12  2  0
 12 13  1  0
 13 14  2  0
 14 15  1  0
 15 16  1  0
 15 17  2  0
  9 18  2  0
 18 19  1  0
 19 20  2  0
 20 21  1  0
 21 22  1  0
 20  3  1  0
 18  5  1  0
 17 11  1  0
M  END
$$$$
CHEMBL3699603_diffdock_1
     RDKit          3D

 41 44  0  0  0  0  0  0  0  0999 V2000
  -15.0592   22.3873  -22.6035 C   0  0  0  0  0  0  0  0  0  0  0  0
  -14.2220   21.7504  -23.3944 C   0  0  0  0  0  0  0  0  0  0  0  0
  -14.5784   20.5803  -24.1787 C   0  0  0  0  0  0  0  0  0  0  0  0
  -15.7656   20.4568  -24.6407 O   0  0  0  0  0  0  0  0  0  0  0  0
  -13.6811   19.5206  -24.4866 N   0  0  0  0  0  0  0  0  0  0  0  0
  -14.0657   18.4951  -25.4196 C   0  0  0  0  0  0  0  0  0  0  0  0
  -15.2702   17.8720  -25.2979 C   0  0  0  0  0  0  0  0  0  0  0  0
  -15.6153   16.8920  -26.2059 C   0  0  0  0  0  0  0  0  0  0  0  0
  -14.7419   16.5561  -27.2209 C   0  0  0  0  0  0  0  0  0  0  0  0
  -13.5204   17.1766  -27.3577 C   0  0  0  0  0  0  0  0  0  0  0  0
  -12.6030   16.8436  -28.4011 N   0  0  0  0  0  0  0  0  0  0  0  0
  -12.4110   15.4439  -28.6730 C   0  0  0  0  0  0  0  0  0  0  0  0
  -13.1828   14.5085  -28.1069 N   0  0  0  0  0  0  0  0  0  0  0  0
  -13.0337   13.1686  -28.3342 C   0  0  0  0  0  0  0  0  0  0  0  0
  -13.9042   12.2676  -27.6831 N   0  0  0  0  0  0  0  0  0  0  0  0
  -14.9670   12.6195  -26.8299 C   0  0  0  0  0  0  0  0  0  0  0  0
  -15.0448   13.7517  -26.0561 C   0  0  0  0  0  0  0  0  0  0  0  0
  -16.1466   14.0223  -25.2295 C   0  0  0  0  0  0  0  0  0  0  0  0
  -17.1966   13.1512  -25.1673 C   0  0  0  0  0  0  0  0  0  0  0  0
  -18.3329   13.3327  -24.3840 N   0  0  0  0  0  0  0  0  0  0  0  0
  -18.5645   14.4602  -23.5023 C   0  0  0  0  0  0  0  0  0  0  0  0
  -20.0356   14.6970  -23.5551 C   0  0  0  0  0  0  0  0  0  0  0  0
  -20.8390   13.7166  -22.7175 N   0  0  0  0  0  4  0  0  0  0  0  0
  -21.0166   14.0939  -21.4518 C   0  0  0  0  0  0  0  0  0  0  0  0
  -22.0314   14.7705  -21.6129 O   0  0  0  0  0  0  0  0  0  0  0  0
  -20.5850   14.0599  -20.1115 N   0  0  0  0  0  0  0  0  0  0  0  0
  -21.4294   14.3082  -18.9472 C   0  0  0  0  0  0  0  0  0  0  0  0
  -19.9586   12.5965  -22.8871 C   0  0  0  0  0  0  0  0  0  0  0  0
  -19.4737   12.4020  -24.3224 C   0  0  0  0  0  0  0  0  0  0  0  0
  -17.1063   12.0184  -25.9492 C   0  0  0  0  0  0  0  0  0  0  0  0
  -16.0479   11.7193  -26.7683 C   0  0  0  0  0  0  0  0  0  0  0  0
  -16.0235   10.5474  -27.5361 O   0  0  0  0  0  0  0  0  0  0  0  0
  -17.0743    9.6211  -27.3665 C   0  0  0  0  0  0  0  0  0  0  0  0
  -12.0564   12.8099  -29.1709 N   0  0  0  0  0  0  0  0  0  0  0  0
  -11.2337   13.6630  -29.7854 C   0  0  0  0  0  0  0  0  0  0  0  0
  -11.4095   15.0123  -29.5350 C   0  0  0  0  0  0  0  0  0  0  0  0
  -10.5344   15.9963  -30.1748 C   0  0  0  0  0  0  0  0  0  0  0  0
   -9.8522   16.6926  -29.1957 F   0  0  0  0  0  0  0  0  0  0  0  0
   -9.6183   15.3729  -30.9882 F   0  0  0  0  0  0  0  0  0  0  0  0
  -11.2502   16.9425  -30.8889 F   0  0  0  0  0  0  0  0  0  0  0  0
  -13.1998   18.1449  -26.4461 C   0  0  0  0  0  0  0  0  0  0  0  0
  1  2  2  0
  2  3  1  0
  3  4  2  0
  3  5  1  0
  5  6  1  0
  6  7  2  0
  7  8  1  0
  8  9  2  0
  9 10  1  0
 10 11  1  0
 11 12  1  0
 12 13  2  0
 13 14  1  0
 14 15  1  0
 15 16  1  0
 16 17  2  0
 17 18  1  0
 18 19  2  0
 19 20  1  0
 20 21  1  0
 21 22  1  0
 22 23  1  0
 23 24  1  0
 24 25  2  0
 24 26  1  0
 26 27  1  0
 23 28  1  0
 28 29  1  0
 19 30  1  0
 30 31  2  0
 31 32  1  0
 32 33  1  0
 14 34  2  0
 34 35  1  0
 35 36  2  0
 36 37  1  0
 37 38  1  0
 37 39  1  0
 37 40  1  0
 10 41  2  0
 41  6  1  0
 36 12  1  0
 31 16  1  0
 29 20  1  0
M  CHG  1  23   1
M  END
$$$$
CHEMBL3699603_diffdock_2
     RDKit          3D

 41 44  0  0  0  0  0  0  0  0999 V2000
  -13.1956   20.3407  -21.2345 C   0  0  0  0  0  0  0  0  0  0  0  0
  -12.9469   20.2641  -22.5245 C   0  0  0  0  0  0  0  0  0  0  0  0
  -13.5508   19.2830  -23.4101 C   0  0  0  0  0  0  0  0  0  0  0  0
  -13.9511   18.1605  -22.9435 O   0  0  0  0  0  0  0  0  0  0  0  0
  -13.7405   19.4761  -24.8063 N   0  0  0  0  0  0  0  0  0  0  0  0
  -13.9577   18.3459  -25.6699 C   0  0  0  0  0  0  0  0  0  0  0  0
  -15.0360   17.5357  -25.4832 C   0  0  0  0  0  0  0  0  0  0  0  0
  -15.2217   16.4585  -26.3253 C   0  0  0  0  0  0  0  0  0  0  0  0
  -14.3188   16.2154  -27.3409 C   0  0  0  0  0  0  0  0  0  0  0  0
  -13.2235   17.0250  -27.5429 C   0  0  0  0  0  0  0  0  0  0  0  0
  -12.2782   16.7905  -28.5881 N   0  0  0  0  0  0  0  0  0  0  0  0
  -11.9128   15.4212  -28.8364 C   0  0  0  0  0  0  0  0  0  0  0  0
  -12.6988   14.4070  -28.4561 N   0  0  0  0  0  0  0  0  0  0  0  0
  -12.3896   13.0924  -28.6686 C   0  0  0  0  0  0  0  0  0  0  0  0
  -13.2923   12.1014  -28.2249 N   0  0  0  0  0  0  0  0  0  0  0  0
  -14.3744   12.3053  -27.3483 C   0  0  0  0  0  0  0  0  0  0  0  0
  -14.5427   13.3749  -26.5029 C   0  0  0  0  0  0  0  0  0  0  0  0
  -15.6570   13.4963  -25.6579 C   0  0  0  0  0  0  0  0  0  0  0  0
  -16.6280   12.5361  -25.6494 C   0  0  0  0  0  0  0  0  0  0  0  0
  -17.7694   12.5687  -24.8532 N   0  0  0  0  0  0  0  0  0  0  0  0
  -18.2393   13.7277  -24.1194 C   0  0  0  0  0  0  0  0  0  0  0  0
  -19.7265   13.6255  -24.1457 C   0  0  0  0  0  0  0  0  0  0  0  0
  -20.2836   12.6167  -23.1556 N   0  0  0  0  0  4  0  0  0  0  0  0
  -20.5300   13.1155  -21.9447 C   0  0  0  0  0  0  0  0  0  0  0  0
  -19.3828   13.0728  -21.5024 O   0  0  0  0  0  0  0  0  0  0  0  0
  -21.4577   13.6319  -21.0192 N   0  0  0  0  0  0  0  0  0  0  0  0
  -21.8575   15.0319  -20.9179 C   0  0  0  0  0  0  0  0  0  0  0  0
  -19.1769   11.7053  -23.2104 C   0  0  0  0  0  0  0  0  0  0  0  0
  -18.6730   11.4273  -24.6252 C   0  0  0  0  0  0  0  0  0  0  0  0
  -16.4473   11.4676  -26.5028 C   0  0  0  0  0  0  0  0  0  0  0  0
  -15.3738   11.3135  -27.3421 C   0  0  0  0  0  0  0  0  0  0  0  0
  -15.2552   10.1995  -28.1839 O   0  0  0  0  0  0  0  0  0  0  0  0
  -16.2197    9.1760  -28.0695 C   0  0  0  0  0  0  0  0  0  0  0  0
  -11.2347   12.8436  -29.2914 N   0  0  0  0  0  0  0  0  0  0  0  0
  -10.3819   13.7816  -29.7099 C   0  0  0  0  0  0  0  0  0  0  0  0
  -10.7227   15.1028  -29.4801 C   0  0  0  0  0  0  0  0  0  0  0  0
   -9.8252   16.1764  -29.9105 C   0  0  0  0  0  0  0  0  0  0  0  0
   -8.7184   15.6175  -30.5201 F   0  0  0  0  0  0  0  0  0  0  0  0
  -10.4539   16.9999  -30.8139 F   0  0  0  0  0  0  0  0  0  0  0  0
   -9.3426   16.9111  -28.8407 F   0  0  0  0  0  0  0  0  0  0  0  0
  -13.0599   18.0867  -26.6959 C   0  0  0  0  0  0  0  0  0  0  0  0
  1  2  2  0
  2  3  1  0
  3  4  2  0
  3  5  1  0
  5  6  1  0
  6  7  2  0
  7  8  1  0
  8  9  2  0
  9 10  1  0
 10 11  1  0
 11 12  1  0
 12 13  2  0
 13 14  1  0
 14 15  1  0
 15 16  1  0
 16 17  2  0
 17 18  1  0
 18 19  2  0
 19 20  1  0
 20 21  1  0
 21 22  1  0
 22 23  1  0
 23 24  1  0
 24 25  2  0
 24 26  1  0
 26 27  1  0
 23 28  1  0
 28 29  1  0
 19 30  1  0
 30 31  2  0
 31 32  1  0
 32 33  1  0
 14 34  2  0
 34 35  1  0
 35 36  2  0
 36 37  1  0
 37 38  1  0
 37 39  1  0
 37 40  1  0
 10 41  2  0
 41  6  1  0
 36 12  1  0
 31 16  1  0
 29 20  1  0
M  CHG  1  23   1
M  END
$$$$
CHEMBL3699603_diffdock_3
     RDKit          3D

 41 44  0  0  0  0  0  0  0  0999 V2000
  -15.5600   23.0134  -23.9367 C   0  0  0  0  0  0  0  0  0  0  0  0
  -14.8991   22.4332  -24.9157 C   0  0  0  0  0  0  0  0  0  0  0  0
  -14.8413   20.9950  -25.1146 C   0  0  0  0  0  0  0  0  0  0  0  0
  -14.8851   20.2073  -24.1068 O   0  0  0  0  0  0  0  0  0  0  0  0
  -14.7360   20.3674  -26.3866 N   0  0  0  0  0  0  0  0  0  0  0  0
  -14.4192   18.9670  -26.4782 C   0  0  0  0  0  0  0  0  0  0  0  0
  -15.1856   18.0453  -25.8324 C   0  0  0  0  0  0  0  0  0  0  0  0
  -14.8605   16.7084  -25.9365 C   0  0  0  0  0  0  0  0  0  0  0  0
  -13.7694   16.3221  -26.6891 C   0  0  0  0  0  0  0  0  0  0  0  0
  -12.9845   17.2416  -27.3481 C   0  0  0  0  0  0  0  0  0  0  0  0
  -11.8519   16.8621  -28.1318 N   0  0  0  0  0  0  0  0  0  0  0  0
  -11.8894   15.5566  -28.7355 C   0  0  0  0  0  0  0  0  0  0  0  0
  -12.6152   14.5628  -28.2096 N   0  0  0  0  0  0  0  0  0  0  0  0
  -12.6773   13.3075  -28.7477 C   0  0  0  0  0  0  0  0  0  0  0  0
  -13.4754   12.3331  -28.1096 N   0  0  0  0  0  0  0  0  0  0  0  0
  -14.4420   12.5806  -27.1169 C   0  0  0  0  0  0  0  0  0  0  0  0
  -14.3773   13.5499  -26.1459 C   0  0  0  0  0  0  0  0  0  0  0  0
  -15.3908   13.7250  -25.1906 C   0  0  0  0  0  0  0  0  0  0  0  0
  -16.4949   12.9213  -25.1965 C   0  0  0  0  0  0  0  0  0  0  0  0
  -17.5526   13.0192  -24.2969 N   0  0  0  0  0  0  0  0  0  0  0  0
  -18.3674   11.9076  -23.8463 C   0  0  0  0  0  0  0  0  0  0  0  0
  -18.7180   12.2323  -22.4341 C   0  0  0  0  0  0  0  0  0  0  0  0
  -19.8284   13.2612  -22.3050 N   0  0  0  0  0  4  0  0  0  0  0  0
  -21.0563   12.7436  -22.2901 C   0  0  0  0  0  0  0  0  0  0  0  0
  -21.4077   13.0974  -23.4147 O   0  0  0  0  0  0  0  0  0  0  0  0
  -22.0529   12.0230  -21.6034 N   0  0  0  0  0  0  0  0  0  0  0  0
  -22.3969   12.1926  -20.1952 C   0  0  0  0  0  0  0  0  0  0  0  0
  -19.5073   13.9984  -23.4933 C   0  0  0  0  0  0  0  0  0  0  0  0
  -18.0145   14.2697  -23.6692 C   0  0  0  0  0  0  0  0  0  0  0  0
  -16.5478   11.9522  -26.1767 C   0  0  0  0  0  0  0  0  0  0  0  0
  -15.5791   11.7502  -27.1261 C   0  0  0  0  0  0  0  0  0  0  0  0
  -15.6995   10.7440  -28.0938 O   0  0  0  0  0  0  0  0  0  0  0  0
  -16.4195    9.5792  -27.7537 C   0  0  0  0  0  0  0  0  0  0  0  0
  -11.9635   13.0972  -29.8567 N   0  0  0  0  0  0  0  0  0  0  0  0
  -11.2089   14.0194  -30.4586 C   0  0  0  0  0  0  0  0  0  0  0  0
  -11.1663   15.2801  -29.8900 C   0  0  0  0  0  0  0  0  0  0  0  0
  -10.3517   16.3322  -30.5007 C   0  0  0  0  0  0  0  0  0  0  0  0
  -11.1708   17.1547  -31.2500 F   0  0  0  0  0  0  0  0  0  0  0  0
   -9.7358   17.0903  -29.5336 F   0  0  0  0  0  0  0  0  0  0  0  0
   -9.4152   15.8191  -31.3823 F   0  0  0  0  0  0  0  0  0  0  0  0
  -13.3259   18.5610  -27.2304 C   0  0  0  0  0  0  0  0  0  0  0  0
  1  2  2  0
  2  3  1  0
  3  4  2  0
  3  5  1  0
  5  6  1  0
  6  7  2  0
  7  8  1  0
  8  9  2  0
  9 10  1  0
 10 11  1  0
 11 12  1  0
 12 13  2  0
 13 14  1  0
 14 15  1  0
 15 16  1  0
 16 17  2  0
 17 18  1  0
 18 19  2  0
 19 20  1  0
 20 21  1  0
 21 22  1  0
 22 23  1  0
 23 24  1  0
 24 25  2  0
 24 26  1  0
 26 27  1  0
 23 28  1  0
 28 29  1  0
 19 30  1  0
 30 31  2  0
 31 32  1  0
 32 33  1  0
 14 34  2  0
 34 35  1  0
 35 36  2  0
 36 37  1  0
 37 38  1  0
 37 39  1  0
 37 40  1  0
 10 41  2  0
 41  6  1  0
 36 12  1  0
 31 16  1  0
 29 20  1  0
M  CHG  1  23   1
M  END
$$$$
CHEMBL3699603_diffdock_4
     RDKit          3D

 41 44  0  0  0  0  0  0  0  0999 V2000
  -15.2654   23.1526  -23.8152 C   0  0  0  0  0  0  0  0  0  0  0  0
  -14.3332   22.2356  -23.9641 C   0  0  0  0  0  0  0  0  0  0  0  0
  -14.5580   20.9454  -24.5933 C   0  0  0  0  0  0  0  0  0  0  0  0
  -15.5705   20.7736  -25.3571 O   0  0  0  0  0  0  0  0  0  0  0  0
  -13.7122   19.8147  -24.4229 N   0  0  0  0  0  0  0  0  0  0  0  0
  -13.8658   18.6621  -25.2704 C   0  0  0  0  0  0  0  0  0  0  0  0
  -15.0668   18.0260  -25.3542 C   0  0  0  0  0  0  0  0  0  0  0  0
  -15.1879   16.9231  -26.1745 C   0  0  0  0  0  0  0  0  0  0  0  0
  -14.0979   16.4794  -26.8963 C   0  0  0  0  0  0  0  0  0  0  0  0
  -12.8769   17.1114  -26.8225 C   0  0  0  0  0  0  0  0  0  0  0  0
  -11.7374   16.6680  -27.5616 N   0  0  0  0  0  0  0  0  0  0  0  0
  -11.8262   15.3680  -28.1715 C   0  0  0  0  0  0  0  0  0  0  0  0
  -12.6218   14.4140  -27.6736 N   0  0  0  0  0  0  0  0  0  0  0  0
  -12.7344   13.1652  -28.2186 C   0  0  0  0  0  0  0  0  0  0  0  0
  -13.6048   12.2343  -27.6108 N   0  0  0  0  0  0  0  0  0  0  0  0
  -14.6394   12.5414  -26.7072 C   0  0  0  0  0  0  0  0  0  0  0  0
  -14.6809   13.6206  -25.8585 C   0  0  0  0  0  0  0  0  0  0  0  0
  -15.7563   13.8489  -24.9857 C   0  0  0  0  0  0  0  0  0  0  0  0
  -16.8161   12.9882  -24.9521 C   0  0  0  0  0  0  0  0  0  0  0  0
  -17.9284   13.1308  -24.1274 N   0  0  0  0  0  0  0  0  0  0  0  0
  -17.9347   13.8166  -22.8498 C   0  0  0  0  0  0  0  0  0  0  0  0
  -19.2860   14.4386  -22.7512 C   0  0  0  0  0  0  0  0  0  0  0  0
  -20.3806   13.4561  -22.3706 N   0  0  0  0  0  4  0  0  0  0  0  0
  -20.5592   13.3159  -21.0575 C   0  0  0  0  0  0  0  0  0  0  0  0
  -19.5143   13.8462  -20.6825 O   0  0  0  0  0  0  0  0  0  0  0  0
  -21.3594   12.8617  -19.9911 N   0  0  0  0  0  0  0  0  0  0  0  0
  -21.7687   11.4777  -19.7740 C   0  0  0  0  0  0  0  0  0  0  0  0
  -19.8064   12.3123  -23.0191 C   0  0  0  0  0  0  0  0  0  0  0  0
  -19.2709   12.5989  -24.4205 C   0  0  0  0  0  0  0  0  0  0  0  0
  -16.7623   11.9088  -25.8092 C   0  0  0  0  0  0  0  0  0  0  0  0
  -15.7305   11.6521  -26.6753 C   0  0  0  0  0  0  0  0  0  0  0  0
  -15.7428   10.5335  -27.5191 O   0  0  0  0  0  0  0  0  0  0  0  0
  -16.8790    9.6971  -27.4955 C   0  0  0  0  0  0  0  0  0  0  0  0
  -11.9971   12.9188  -29.3045 N   0  0  0  0  0  0  0  0  0  0  0  0
  -11.1741   13.7999  -29.8777 C   0  0  0  0  0  0  0  0  0  0  0  0
  -11.0818   15.0551  -29.3029 C   0  0  0  0  0  0  0  0  0  0  0  0
  -10.1915   16.0626  -29.8825 C   0  0  0  0  0  0  0  0  0  0  0  0
  -10.9514   16.9905  -30.5683 F   0  0  0  0  0  0  0  0  0  0  0  0
   -9.4901   16.7138  -28.8958 F   0  0  0  0  0  0  0  0  0  0  0  0
   -9.3234   15.5163  -30.8127 F   0  0  0  0  0  0  0  0  0  0  0  0
  -12.7805   18.2025  -26.0030 C   0  0  0  0  0  0  0  0  0  0  0  0
  1  2  2  0
  2  3  1  0
  3  4  2  0
  3  5  1  0
  5  6  1  0
  6  7  2  0
  7  8  1  0
  8  9  2  0
  9 10  1  0
 10 11  1  0
 11 12  1  0
 12 13  2  0
 13 14  1  0
 14 15  1  0
 15 16  1  0
 16 17  2  0
 17 18  1  0
 18 19  2  0
 19 20  1  0
 20 21  1  0
 21 22  1  0
 22 23  1  0
 23 24  1  0
 24 25  2  0
 24 26  1  0
 26 27  1  0
 23 28  1  0
 28 29  1  0
 19 30  1  0
 30 31  2  0
 31 32  1  0
 32 33  1  0
 14 34  2  0
 34 35  1  0
 35 36  2  0
 36 37  1  0
 37 38  1  0
 37 39  1  0
 37 40  1  0
 10 41  2  0
 41  6  1  0
 36 12  1  0
 31 16  1  0
 29 20  1  0
M  CHG  1  23   1
M  END
$$$$
CHEMBL3699603_diffdock_5
     RDKit          3D

 41 44  0  0  0  0  0  0  0  0999 V2000
  -14.8968   23.8513  -25.8530 C   0  0  0  0  0  0  0  0  0  0  0  0
  -14.3751   22.7774  -25.2992 C   0  0  0  0  0  0  0  0  0  0  0  0
  -14.4756   21.4429  -25.8650 C   0  0  0  0  0  0  0  0  0  0  0  0
  -15.2438   21.2284  -26.8660 O   0  0  0  0  0  0  0  0  0  0  0  0
  -13.7627   20.3125  -25.3785 N   0  0  0  0  0  0  0  0  0  0  0  0
  -13.7678   19.0798  -26.1205 C   0  0  0  0  0  0  0  0  0  0  0  0
  -14.9417   18.4442  -26.3890 C   0  0  0  0  0  0  0  0  0  0  0  0
  -14.9192   17.2635  -27.1027 C   0  0  0  0  0  0  0  0  0  0  0  0
  -13.7156   16.7428  -27.5338 C   0  0  0  0  0  0  0  0  0  0  0  0
  -12.5201   17.3732  -27.2705 C   0  0  0  0  0  0  0  0  0  0  0  0
  -11.2644   16.8508  -27.7081 N   0  0  0  0  0  0  0  0  0  0  0  0
  -11.2912   15.5828  -28.3876 C   0  0  0  0  0  0  0  0  0  0  0  0
  -12.0883   14.5876  -27.9813 N   0  0  0  0  0  0  0  0  0  0  0  0
  -12.1434   13.3670  -28.5947 C   0  0  0  0  0  0  0  0  0  0  0  0
  -13.0214   12.3874  -28.0816 N   0  0  0  0  0  0  0  0  0  0  0  0
  -14.1113   12.6258  -27.2234 C   0  0  0  0  0  0  0  0  0  0  0  0
  -14.2023   13.6265  -26.2869 C   0  0  0  0  0  0  0  0  0  0  0  0
  -15.3314   13.7895  -25.4691 C   0  0  0  0  0  0  0  0  0  0  0  0
  -16.3961   12.9415  -25.5808 C   0  0  0  0  0  0  0  0  0  0  0  0
  -17.5594   13.0238  -24.8207 N   0  0  0  0  0  0  0  0  0  0  0  0
  -17.6061   13.3004  -23.3981 C   0  0  0  0  0  0  0  0  0  0  0  0
  -18.8577   14.0852  -23.1974 C   0  0  0  0  0  0  0  0  0  0  0  0
  -20.1157   13.2333  -23.2001 N   0  0  0  0  0  4  0  0  0  0  0  0
  -20.4535   12.7504  -22.0049 C   0  0  0  0  0  0  0  0  0  0  0  0
  -19.4093   12.1480  -21.7595 O   0  0  0  0  0  0  0  0  0  0  0  0
  -21.4092   12.6364  -20.9766 N   0  0  0  0  0  0  0  0  0  0  0  0
  -22.7665   12.1254  -21.1399 C   0  0  0  0  0  0  0  0  0  0  0  0
  -19.6436   12.2472  -24.1291 C   0  0  0  0  0  0  0  0  0  0  0  0
  -18.9243   12.8335  -25.3423 C   0  0  0  0  0  0  0  0  0  0  0  0
  -16.2923   11.9411  -26.5249 C   0  0  0  0  0  0  0  0  0  0  0  0
  -15.2073   11.7498  -27.3413 C   0  0  0  0  0  0  0  0  0  0  0  0
  -15.1705   10.7100  -28.2800 O   0  0  0  0  0  0  0  0  0  0  0  0
  -15.7331    9.4680  -27.9167 C   0  0  0  0  0  0  0  0  0  0  0  0
  -11.3462   13.1934  -29.6520 N   0  0  0  0  0  0  0  0  0  0  0  0
  -10.5162   14.1204  -30.1357 C   0  0  0  0  0  0  0  0  0  0  0  0
  -10.4830   15.3454  -29.4933 C   0  0  0  0  0  0  0  0  0  0  0  0
   -9.5885   16.4003  -29.9734 C   0  0  0  0  0  0  0  0  0  0  0  0
   -8.9848   17.0043  -28.8872 F   0  0  0  0  0  0  0  0  0  0  0  0
   -8.6095   15.8740  -30.7822 F   0  0  0  0  0  0  0  0  0  0  0  0
  -10.2757   17.4034  -30.6359 F   0  0  0  0  0  0  0  0  0  0  0  0
  -12.5668   18.5421  -26.5615 C   0  0  0  0  0  0  0  0  0  0  0  0
  1  2  2  0
  2  3  1  0
  3  4  2  0
  3  5  1  0
  5  6  1  0
  6  7  2  0
  7  8  1  0
  8  9  2  0
  9 10  1  0
 10 11  1  0
 11 12  1  0
 12 13  2  0
 13 14  1  0
 14 15  1  0
 15 16  1  0
 16 17  2  0
 17 18  1  0
 18 19  2  0
 19 20  1  0
 20 21  1  0
 21 22  1  0
 22 23  1  0
 23 24  1  0
 24 25  2  0
 24 26  1  0
 26 27  1  0
 23 28  1  0
 28 29  1  0
 19 30  1  0
 30 31  2  0
 31 32  1  0
 32 33  1  0
 14 34  2  0
 34 35  1  0
 35 36  2  0
 36 37  1  0
 37 38  1  0
 37 39  1  0
 37 40  1  0
 10 41  2  0
 41  6  1  0
 36 12  1  0
 31 16  1  0
 29 20  1  0
M  CHG  1  23   1
M  END
$$$$
CHEMBL3699603_diffdock_6
     RDKit          3D

 41 44  0  0  0  0  0  0  0  0999 V2000
  -13.1733   19.6089  -20.1929 C   0  0  0  0  0  0  0  0  0  0  0  0
  -12.9155   18.6027  -21.0011 C   0  0  0  0  0  0  0  0  0  0  0  0
  -13.6219   18.3625  -22.2479 C   0  0  0  0  0  0  0  0  0  0  0  0
  -14.7949   17.8509  -22.2306 O   0  0  0  0  0  0  0  0  0  0  0  0
  -13.0958   18.6611  -23.5352 N   0  0  0  0  0  0  0  0  0  0  0  0
  -13.4890   17.8784  -24.6766 C   0  0  0  0  0  0  0  0  0  0  0  0
  -14.7497   17.3708  -24.7605 C   0  0  0  0  0  0  0  0  0  0  0  0
  -15.1017   16.6237  -25.8659 C   0  0  0  0  0  0  0  0  0  0  0  0
  -14.1786   16.4004  -26.8678 C   0  0  0  0  0  0  0  0  0  0  0  0
  -12.9001   16.9066  -26.7981 C   0  0  0  0  0  0  0  0  0  0  0  0
  -11.9307   16.6870  -27.8243 N   0  0  0  0  0  0  0  0  0  0  0  0
  -11.8076   15.3429  -28.3228 C   0  0  0  0  0  0  0  0  0  0  0  0
  -12.5605   14.3464  -27.8422 N   0  0  0  0  0  0  0  0  0  0  0  0
  -12.4746   13.0554  -28.2839 C   0  0  0  0  0  0  0  0  0  0  0  0
  -13.3179   12.0815  -27.7058 N   0  0  0  0  0  0  0  0  0  0  0  0
  -14.3493   12.3290  -26.7805 C   0  0  0  0  0  0  0  0  0  0  0  0
  -14.4694   13.4367  -25.9772 C   0  0  0  0  0  0  0  0  0  0  0  0
  -15.5348   13.6004  -25.0779 C   0  0  0  0  0  0  0  0  0  0  0  0
  -16.5044   12.6446  -24.9712 C   0  0  0  0  0  0  0  0  0  0  0  0
  -17.5996   12.7174  -24.1150 N   0  0  0  0  0  0  0  0  0  0  0  0
  -18.8254   11.9577  -24.2654 C   0  0  0  0  0  0  0  0  0  0  0  0
  -19.2834   11.6825  -22.8735 C   0  0  0  0  0  0  0  0  0  0  0  0
  -19.9548   12.8721  -22.2086 N   0  0  0  0  0  4  0  0  0  0  0  0
  -21.2680   12.9501  -22.4214 C   0  0  0  0  0  0  0  0  0  0  0  0
  -21.3593   14.1746  -22.4973 O   0  0  0  0  0  0  0  0  0  0  0  0
  -22.5040   12.2949  -22.5859 N   0  0  0  0  0  0  0  0  0  0  0  0
  -23.7371   12.6318  -21.8816 C   0  0  0  0  0  0  0  0  0  0  0  0
  -19.1833   13.8856  -22.8689 C   0  0  0  0  0  0  0  0  0  0  0  0
  -17.6869   13.5850  -22.9272 C   0  0  0  0  0  0  0  0  0  0  0  0
  -16.3722   11.5375  -25.7833 C   0  0  0  0  0  0  0  0  0  0  0  0
  -15.3473   11.3417  -26.6730 C   0  0  0  0  0  0  0  0  0  0  0  0
  -15.2767   10.1898  -27.4680 O   0  0  0  0  0  0  0  0  0  0  0  0
  -16.3125    9.2388  -27.3514 C   0  0  0  0  0  0  0  0  0  0  0  0
  -11.5815   12.8117  -29.2465 N   0  0  0  0  0  0  0  0  0  0  0  0
  -10.7845   13.7335  -29.7918 C   0  0  0  0  0  0  0  0  0  0  0  0
  -10.8949   15.0308  -29.3237 C   0  0  0  0  0  0  0  0  0  0  0  0
  -10.0434   16.0848  -29.8783 C   0  0  0  0  0  0  0  0  0  0  0  0
   -8.9879   15.5001  -30.5513 F   0  0  0  0  0  0  0  0  0  0  0  0
  -10.7508   16.8626  -30.7638 F   0  0  0  0  0  0  0  0  0  0  0  0
   -9.4778   16.8711  -28.8888 F   0  0  0  0  0  0  0  0  0  0  0  0
  -12.5737   17.6441  -25.6931 C   0  0  0  0  0  0  0  0  0  0  0  0
  1  2  2  0
  2  3  1  0
  3  4  2  0
  3  5  1  0
  5  6  1  0
  6  7  2  0
  7  8  1  0
  8  9  2  0
  9 10  1  0
 10 11  1  0
 11 12  1  0
 12 13  2  0
 13 14  1  0
 14 15  1  0
 15 16  1  0
 16 17  2  0
 17 18  1  0
 18 19  2  0
 19 20  1  0
 20 21  1  0
 21 22  1  0
 22 23  1  0
 23 24  1  0
 24 25  2  0
 24 26  1  0
 26 27  1  0
 23 28  1  0
 28 29  1  0
 19 30  1  0
 30 31  2  0
 31 32  1  0
 32 33  1  0
 14 34  2  0
 34 35  1  0
 35 36  2  0
 36 37  1  0
 37 38  1  0
 37 39  1  0
 37 40  1  0
 10 41  2  0
 41  6  1  0
 36 12  1  0
 31 16  1  0
 29 20  1  0
M  CHG  1  23   1
M  END
$$$$
CHEMBL3699603_diffdock_7
     RDKit          3D

 41 44  0  0  0  0  0  0  0  0999 V2000
  -17.4429   18.5560  -22.3489 C   0  0  0  0  0  0  0  0  0  0  0  0
  -17.1702   17.6585  -23.2719 C   0  0  0  0  0  0  0  0  0  0  0  0
  -16.1855   17.8497  -24.3232 C   0  0  0  0  0  0  0  0  0  0  0  0
  -16.0096   19.0109  -24.8318 O   0  0  0  0  0  0  0  0  0  0  0  0
  -15.3701   16.8118  -24.8532 N   0  0  0  0  0  0  0  0  0  0  0  0
  -14.0339   17.0998  -25.3024 C   0  0  0  0  0  0  0  0  0  0  0  0
  -13.1436   17.7040  -24.4680 C   0  0  0  0  0  0  0  0  0  0  0  0
  -11.8682   17.9689  -24.9231 C   0  0  0  0  0  0  0  0  0  0  0  0
  -11.5109   17.6211  -26.2104 C   0  0  0  0  0  0  0  0  0  0  0  0
  -12.3993   17.0097  -27.0664 C   0  0  0  0  0  0  0  0  0  0  0  0
  -12.0488   16.6418  -28.4017 N   0  0  0  0  0  0  0  0  0  0  0  0
  -11.7171   15.2601  -28.6274 C   0  0  0  0  0  0  0  0  0  0  0  0
  -12.4858   14.2700  -28.1585 N   0  0  0  0  0  0  0  0  0  0  0  0
  -12.2070   12.9449  -28.3466 C   0  0  0  0  0  0  0  0  0  0  0  0
  -13.0873   11.9818  -27.8071 N   0  0  0  0  0  0  0  0  0  0  0  0
  -14.1405   12.2390  -26.9094 C   0  0  0  0  0  0  0  0  0  0  0  0
  -14.1985   13.2675  -26.0008 C   0  0  0  0  0  0  0  0  0  0  0  0
  -15.2920   13.4478  -25.1393 C   0  0  0  0  0  0  0  0  0  0  0  0
  -16.3536   12.5896  -25.1781 C   0  0  0  0  0  0  0  0  0  0  0  0
  -17.4830   12.6873  -24.3703 N   0  0  0  0  0  0  0  0  0  0  0  0
  -17.9031   13.8845  -23.6684 C   0  0  0  0  0  0  0  0  0  0  0  0
  -19.3931   13.8339  -23.6744 C   0  0  0  0  0  0  0  0  0  0  0  0
  -19.9725   12.8770  -22.6464 N   0  0  0  0  0  4  0  0  0  0  0  0
  -20.1862   13.4220  -21.4492 C   0  0  0  0  0  0  0  0  0  0  0  0
  -19.2472   12.8993  -20.8503 O   0  0  0  0  0  0  0  0  0  0  0  0
  -20.9570   14.2704  -20.6307 N   0  0  0  0  0  0  0  0  0  0  0  0
  -20.4695   14.9705  -19.4465 C   0  0  0  0  0  0  0  0  0  0  0  0
  -18.8989   11.9260  -22.6847 C   0  0  0  0  0  0  0  0  0  0  0  0
  -18.4229   11.5861  -24.0957 C   0  0  0  0  0  0  0  0  0  0  0  0
  -16.2831   11.5613  -26.0949 C   0  0  0  0  0  0  0  0  0  0  0  0
  -15.2334   11.3523  -26.9522 C   0  0  0  0  0  0  0  0  0  0  0  0
  -15.2293   10.2844  -27.8594 O   0  0  0  0  0  0  0  0  0  0  0  0
  -16.3689    9.4540  -27.9118 C   0  0  0  0  0  0  0  0  0  0  0  0
  -11.1014   12.6596  -29.0393 N   0  0  0  0  0  0  0  0  0  0  0  0
  -10.2696   13.5714  -29.5484 C   0  0  0  0  0  0  0  0  0  0  0  0
  -10.5787   14.9040  -29.3412 C   0  0  0  0  0  0  0  0  0  0  0  0
   -9.7016   15.9503  -29.8699 C   0  0  0  0  0  0  0  0  0  0  0  0
   -8.6154   15.3564  -30.4834 F   0  0  0  0  0  0  0  0  0  0  0  0
  -10.3659   16.7149  -30.7992 F   0  0  0  0  0  0  0  0  0  0  0  0
   -9.1835   16.7511  -28.8661 F   0  0  0  0  0  0  0  0  0  0  0  0
  -13.6578   16.7570  -26.5935 C   0  0  0  0  0  0  0  0  0  0  0  0
  1  2  2  0
  2  3  1  0
  3  4  2  0
  3  5  1  0
  5  6  1  0
  6  7  2  0
  7  8  1  0
  8  9  2  0
  9 10  1  0
 10 11  1  0
 11 12  1  0
 12 13  2  0
 13 14  1  0
 14 15  1  0
 15 16  1  0
 16 17  2  0
 17 18  1  0
 18 19  2  0
 19 20  1  0
 20 21  1  0
 21 22  1  0
 22 23  1  0
 23 24  1  0
 24 25  2  0
 24 26  1  0
 26 27  1  0
 23 28  1  0
 28 29  1  0
 19 30  1  0
 30 31  2  0
 31 32  1  0
 32 33  1  0
 14 34  2  0
 34 35  1  0
 35 36  2  0
 36 37  1  0
 37 38  1  0
 37 39  1  0
 37 40  1  0
 10 41  2  0
 41  6  1  0
 36 12  1  0
 31 16  1  0
 29 20  1  0
M  CHG  1  23   1
M  END
$$$$
CHEMBL3699603_diffdock_8
     RDKit          3D

 41 44  0  0  0  0  0  0  0  0999 V2000
  -14.0247   21.7244  -21.5686 C   0  0  0  0  0  0  0  0  0  0  0  0
  -13.2793   21.3065  -22.5694 C   0  0  0  0  0  0  0  0  0  0  0  0
  -13.7001   20.2996  -23.5287 C   0  0  0  0  0  0  0  0  0  0  0  0
  -14.8389   19.7297  -23.4003 O   0  0  0  0  0  0  0  0  0  0  0  0
  -12.9198   19.8797  -24.6412 N   0  0  0  0  0  0  0  0  0  0  0  0
  -13.3140   18.7276  -25.4077 C   0  0  0  0  0  0  0  0  0  0  0  0
  -14.4180   18.0128  -25.0554 C   0  0  0  0  0  0  0  0  0  0  0  0
  -14.7747   16.9121  -25.8072 C   0  0  0  0  0  0  0  0  0  0  0  0
  -14.0139   16.5499  -26.9008 C   0  0  0  0  0  0  0  0  0  0  0  0
  -12.8949   17.2621  -27.2701 C   0  0  0  0  0  0  0  0  0  0  0  0
  -12.0949   16.9037  -28.3982 N   0  0  0  0  0  0  0  0  0  0  0  0
  -11.6189   15.5470  -28.4505 C   0  0  0  0  0  0  0  0  0  0  0  0
  -12.3993   14.5174  -28.1016 N   0  0  0  0  0  0  0  0  0  0  0  0
  -11.9875   13.2141  -28.1330 C   0  0  0  0  0  0  0  0  0  0  0  0
  -12.8946   12.2049  -27.7425 N   0  0  0  0  0  0  0  0  0  0  0  0
  -14.0381   12.3891  -26.9428 C   0  0  0  0  0  0  0  0  0  0  0  0
  -14.3517   13.5167  -26.2238 C   0  0  0  0  0  0  0  0  0  0  0  0
  -15.5178   13.6128  -25.4483 C   0  0  0  0  0  0  0  0  0  0  0  0
  -16.3946   12.5678  -25.3829 C   0  0  0  0  0  0  0  0  0  0  0  0
  -17.5766   12.5684  -24.6478 N   0  0  0  0  0  0  0  0  0  0  0  0
  -18.2326   13.7524  -24.1278 C   0  0  0  0  0  0  0  0  0  0  0  0
  -19.6906   13.4484  -24.1960 C   0  0  0  0  0  0  0  0  0  0  0  0
  -20.1740   12.5378  -23.0800 N   0  0  0  0  0  4  0  0  0  0  0  0
  -20.5539   13.1788  -21.9751 C   0  0  0  0  0  0  0  0  0  0  0  0
  -19.5386   12.9894  -21.3067 O   0  0  0  0  0  0  0  0  0  0  0  0
  -21.5337   13.9224  -21.2889 N   0  0  0  0  0  0  0  0  0  0  0  0
  -22.8211   14.3324  -21.8409 C   0  0  0  0  0  0  0  0  0  0  0  0
  -18.9596   11.7859  -22.9447 C   0  0  0  0  0  0  0  0  0  0  0  0
  -18.3406   11.3645  -24.2759 C   0  0  0  0  0  0  0  0  0  0  0  0
  -16.0682   11.4416  -26.1095 C   0  0  0  0  0  0  0  0  0  0  0  0
  -14.9399   11.3098  -26.8777 C   0  0  0  0  0  0  0  0  0  0  0  0
  -14.6719   10.1336  -27.5908 O   0  0  0  0  0  0  0  0  0  0  0  0
  -15.7284    9.2181  -27.7816 C   0  0  0  0  0  0  0  0  0  0  0  0
  -10.7342   12.9934  -28.5382 N   0  0  0  0  0  0  0  0  0  0  0  0
   -9.8775   13.9486  -28.9066 C   0  0  0  0  0  0  0  0  0  0  0  0
  -10.3236   15.2577  -28.8639 C   0  0  0  0  0  0  0  0  0  0  0  0
   -9.4284   16.3498  -29.2502 C   0  0  0  0  0  0  0  0  0  0  0  0
   -8.2186   15.8166  -29.6513 F   0  0  0  0  0  0  0  0  0  0  0  0
   -9.9606   17.0648  -30.2966 F   0  0  0  0  0  0  0  0  0  0  0  0
   -9.1427   17.1891  -28.1866 F   0  0  0  0  0  0  0  0  0  0  0  0
  -12.5606   18.3493  -26.5101 C   0  0  0  0  0  0  0  0  0  0  0  0
  1  2  2  0
  2  3  1  0
  3  4  2  0
  3  5  1  0
  5  6  1  0
  6  7  2  0
  7  8  1  0
  8  9  2  0
  9 10  1  0
 10 11  1  0
 11 12  1  0
 12 13  2  0
 13 14  1  0
 14 15  1  0
 15 16  1  0
 16 17  2  0
 17 18  1  0
 18 19  2  0
 19 20  1  0
 20 21  1  0
 21 22  1  0
 22 23  1  0
 23 24  1  0
 24 25  2  0
 24 26  1  0
 26 27  1  0
 23 28  1  0
 28 29  1  0
 19 30  1  0
 30 31  2  0
 31 32  1  0
 32 33  1  0
 14 34  2  0
 34 35  1  0
 35 36  2  0
 36 37  1  0
 37 38  1  0
 37 39  1  0
 37 40  1  0
 10 41  2  0
 41  6  1  0
 36 12  1  0
 31 16  1  0
 29 20  1  0
M  CHG  1  23   1
M  END
$$$$
CHEMBL3699603_diffdock_9
     RDKit          3D

 41 44  0  0  0  0  0  0  0  0999 V2000
  -16.3416   22.5475  -25.7856 C   0  0  0  0  0  0  0  0  0  0  0  0
  -15.1056   22.1116  -25.9043 C   0  0  0  0  0  0  0  0  0  0  0  0
  -14.7539   20.7175  -26.1144 C   0  0  0  0  0  0  0  0  0  0  0  0
  -15.2804   20.0634  -27.0803 O   0  0  0  0  0  0  0  0  0  0  0  0
  -13.8374   19.9932  -25.3032 N   0  0  0  0  0  0  0  0  0  0  0  0
  -13.5995   18.5961  -25.5512 C   0  0  0  0  0  0  0  0  0  0  0  0
  -13.8987   17.6686  -24.6003 C   0  0  0  0  0  0  0  0  0  0  0  0
  -13.6612   16.3350  -24.8632 C   0  0  0  0  0  0  0  0  0  0  0  0
  -13.1265   15.9580  -26.0788 C   0  0  0  0  0  0  0  0  0  0  0  0
  -12.8184   16.8834  -27.0507 C   0  0  0  0  0  0  0  0  0  0  0  0
  -12.2649   16.5134  -28.3148 N   0  0  0  0  0  0  0  0  0  0  0  0
  -11.8941   15.1331  -28.4810 C   0  0  0  0  0  0  0  0  0  0  0  0
  -12.6323   14.1431  -27.9654 N   0  0  0  0  0  0  0  0  0  0  0  0
  -12.3160   12.8195  -28.0962 C   0  0  0  0  0  0  0  0  0  0  0  0
  -13.1663   11.8562  -27.5108 N   0  0  0  0  0  0  0  0  0  0  0  0
  -14.2390   12.1244  -26.6398 C   0  0  0  0  0  0  0  0  0  0  0  0
  -14.3482   13.2028  -25.7961 C   0  0  0  0  0  0  0  0  0  0  0  0
  -15.4576   13.3905  -24.9568 C   0  0  0  0  0  0  0  0  0  0  0  0
  -16.4835   12.4891  -24.9524 C   0  0  0  0  0  0  0  0  0  0  0  0
  -17.6249   12.5897  -24.1621 N   0  0  0  0  0  0  0  0  0  0  0  0
  -18.2958   13.8296  -23.8230 C   0  0  0  0  0  0  0  0  0  0  0  0
  -19.7433   13.4795  -23.7520 C   0  0  0  0  0  0  0  0  0  0  0  0
  -20.1344   12.7707  -22.4664 N   0  0  0  0  0  4  0  0  0  0  0  0
  -20.4793   13.5886  -21.4725 C   0  0  0  0  0  0  0  0  0  0  0  0
  -19.3487   13.8610  -21.0712 O   0  0  0  0  0  0  0  0  0  0  0  0
  -21.4941   14.2301  -20.7358 N   0  0  0  0  0  0  0  0  0  0  0  0
  -21.4679   15.6229  -20.3007 C   0  0  0  0  0  0  0  0  0  0  0  0
  -18.8879   12.0879  -22.2703 C   0  0  0  0  0  0  0  0  0  0  0  0
  -18.3240   11.4518  -23.5394 C   0  0  0  0  0  0  0  0  0  0  0  0
  -16.3617   11.4109  -25.8042 C   0  0  0  0  0  0  0  0  0  0  0  0
  -15.2950   11.1931  -26.6379 C   0  0  0  0  0  0  0  0  0  0  0  0
  -15.2380   10.0732  -27.4783 O   0  0  0  0  0  0  0  0  0  0  0  0
  -16.3245    9.1731  -27.4586 C   0  0  0  0  0  0  0  0  0  0  0  0
  -11.2049   12.5358  -28.7809 N   0  0  0  0  0  0  0  0  0  0  0  0
  -10.4016   13.4477  -29.3334 C   0  0  0  0  0  0  0  0  0  0  0  0
  -10.7483   14.7788  -29.1836 C   0  0  0  0  0  0  0  0  0  0  0  0
   -9.9036   15.8254  -29.7619 C   0  0  0  0  0  0  0  0  0  0  0  0
   -9.5067   16.6867  -28.7572 F   0  0  0  0  0  0  0  0  0  0  0  0
   -8.7821   15.2786  -30.3387 F   0  0  0  0  0  0  0  0  0  0  0  0
  -10.5912   16.6002  -30.6807 F   0  0  0  0  0  0  0  0  0  0  0  0
  -13.0624   18.1993  -26.7678 C   0  0  0  0  0  0  0  0  0  0  0  0
  1  2  2  0
  2  3  1  0
  3  4  2  0
  3  5  1  0
  5  6  1  0
  6  7  2  0
  7  8  1  0
  8  9  2  0
  9 10  1  0
 10 11  1  0
 11 12  1  0
 12 13  2  0
 13 14  1  0
 14 15  1  0
 15 16  1  0
 16 17  2  0
 17 18  1  0
 18 19  2  0
 19 20  1  0
 20 21  1  0
 21 22  1  0
 22 23  1  0
 23 24  1  0
 24 25  2  0
 24 26  1  0
 26 27  1  0
 23 28  1  0
 28 29  1  0
 19 30  1  0
 30 31  2  0
 31 32  1  0
 32 33  1  0
 14 34  2  0
 34 35  1  0
 35 36  2  0
 36 37  1  0
 37 38  1  0
 37 39  1  0
 37 40  1  0
 10 41  2  0
 41  6  1  0
 36 12  1  0
 31 16  1  0
 29 20  1  0
M  CHG  1  23   1
M  END
$$$$
CHEMBL3699603_diffdock_10
     RDKit          3D

 41 44  0  0  0  0  0  0  0  0999 V2000
  -11.9770   22.9750  -23.9444 C   0  0  0  0  0  0  0  0  0  0  0  0
  -13.0504   22.2141  -23.9696 C   0  0  0  0  0  0  0  0  0  0  0  0
  -13.1004   20.9024  -24.5928 C   0  0  0  0  0  0  0  0  0  0  0  0
  -12.2481   20.5898  -25.4950 O   0  0  0  0  0  0  0  0  0  0  0  0
  -14.0557   19.8996  -24.2696 N   0  0  0  0  0  0  0  0  0  0  0  0
  -14.0363   18.6344  -24.9546 C   0  0  0  0  0  0  0  0  0  0  0  0
  -14.7943   17.5971  -24.5035 C   0  0  0  0  0  0  0  0  0  0  0  0
  -14.7580   16.3942  -25.1785 C   0  0  0  0  0  0  0  0  0  0  0  0
  -13.9593   16.2562  -26.2961 C   0  0  0  0  0  0  0  0  0  0  0  0
  -13.1870   17.2953  -26.7649 C   0  0  0  0  0  0  0  0  0  0  0  0
  -12.3545   17.1725  -27.9194 N   0  0  0  0  0  0  0  0  0  0  0  0
  -11.9651   15.8405  -28.2991 C   0  0  0  0  0  0  0  0  0  0  0  0
  -12.5255   14.7613  -27.7403 N   0  0  0  0  0  0  0  0  0  0  0  0
  -12.1841   13.4787  -28.0683 C   0  0  0  0  0  0  0  0  0  0  0  0
  -12.8398   12.4125  -27.4150 N   0  0  0  0  0  0  0  0  0  0  0  0
  -14.1434   12.4473  -26.8853 C   0  0  0  0  0  0  0  0  0  0  0  0
  -15.0852   13.4210  -27.1126 C   0  0  0  0  0  0  0  0  0  0  0  0
  -16.3656   13.3761  -26.5389 C   0  0  0  0  0  0  0  0  0  0  0  0
  -16.7223   12.3426  -25.7206 C   0  0  0  0  0  0  0  0  0  0  0  0
  -17.9658   12.2066  -25.1100 N   0  0  0  0  0  0  0  0  0  0  0  0
  -18.7531   10.9892  -25.0873 C   0  0  0  0  0  0  0  0  0  0  0  0
  -19.4545   11.0064  -23.7718 C   0  0  0  0  0  0  0  0  0  0  0  0
  -20.6576   11.9335  -23.7371 N   0  0  0  0  0  4  0  0  0  0  0  0
  -21.7994   11.3648  -24.1228 C   0  0  0  0  0  0  0  0  0  0  0  0
  -21.4725   11.0827  -25.2748 O   0  0  0  0  0  0  0  0  0  0  0  0
  -23.1166   10.9738  -23.8132 N   0  0  0  0  0  0  0  0  0  0  0  0
  -24.1747   10.7293  -24.7883 C   0  0  0  0  0  0  0  0  0  0  0  0
  -20.1391   12.9089  -24.6526 C   0  0  0  0  0  0  0  0  0  0  0  0
  -18.6798   13.2819  -24.3991 C   0  0  0  0  0  0  0  0  0  0  0  0
  -15.7677   11.3715  -25.5006 C   0  0  0  0  0  0  0  0  0  0  0  0
  -14.5079   11.3803  -26.0422 C   0  0  0  0  0  0  0  0  0  0  0  0
  -13.5877   10.3580  -25.7744 O   0  0  0  0  0  0  0  0  0  0  0  0
  -13.9048    9.4285  -24.7613 C   0  0  0  0  0  0  0  0  0  0  0  0
  -11.2377   13.3321  -28.9992 N   0  0  0  0  0  0  0  0  0  0  0  0
  -10.6182   14.3413  -29.6156 C   0  0  0  0  0  0  0  0  0  0  0  0
  -10.9855   15.6275  -29.2620 C   0  0  0  0  0  0  0  0  0  0  0  0
  -10.3376   16.7757  -29.8987 C   0  0  0  0  0  0  0  0  0  0  0  0
  -11.2745   17.4589  -30.6499 F   0  0  0  0  0  0  0  0  0  0  0  0
   -9.8277   17.6308  -28.9509 F   0  0  0  0  0  0  0  0  0  0  0  0
   -9.3459   16.3883  -30.7841 F   0  0  0  0  0  0  0  0  0  0  0  0
  -13.2391   18.4781  -26.0797 C   0  0  0  0  0  0  0  0  0  0  0  0
  1  2  2  0
  2  3  1  0
  3  4  2  0
  3  5  1  0
  5  6  1  0
  6  7  2  0
  7  8  1  0
  8  9  2  0
  9 10  1  0
 10 11  1  0
 11 12  1  0
 12 13  2  0
 13 14  1  0
 14 15  1  0
 15 16  1  0
 16 17  2  0
 17 18  1  0
 18 19  2  0
 19 20  1  0
 20 21  1  0
 21 22  1  0
 22 23  1  0
 23 24  1  0
 24 25  2  0
 24 26  1  0
 26 27  1  0
 23 28  1  0
 28 29  1  0
 19 30  1  0
 30 31  2  0
 31 32  1  0
 32 33  1  0
 14 34  2  0
 34 35  1  0
 35 36  2  0
 36 37  1  0
 37 38  1  0
 37 39  1  0
 37 40  1  0
 10 41  2  0
 41  6  1  0
 36 12  1  0
 31 16  1  0
 29 20  1  0
M  CHG  1  23   1
M  END
$$$$
CHEMBL31815_diffdock_1
     RDKit          3D

 23 25  0  0  0  0  0  0  0  0999 V2000
  -15.2293   18.0141  -22.8692 C   0  0  0  0  0  0  0  0  0  0  0  0
  -15.7873   17.5330  -23.9844 C   0  0  0  0  0  0  0  0  0  0  0  0
  -15.0123   16.7304  -24.9226 C   0  0  0  0  0  0  0  0  0  0  0  0
  -14.0454   17.3386  -25.5203 O   0  0  0  0  0  0  0  0  0  0  0  0
  -15.2664   15.3623  -25.1938 N   0  0  0  0  0  0  0  0  0  0  0  0
  -14.4162   14.6642  -26.1193 C   0  0  0  0  0  0  0  0  0  0  0  0
  -14.5135   13.2881  -26.1638 C   0  0  0  0  0  0  0  0  0  0  0  0
  -13.7037   12.6386  -27.0357 C   0  0  0  0  0  0  0  0  0  0  0  0
  -12.7932   13.3036  -27.8709 C   0  0  0  0  0  0  0  0  0  0  0  0
  -12.0278   12.6115  -28.7049 N   0  0  0  0  0  0  0  0  0  0  0  0
  -11.1527   13.2869  -29.5083 C   0  0  0  0  0  0  0  0  0  0  0  0
  -11.0846   14.6256  -29.4404 N   0  0  0  0  0  0  0  0  0  0  0  0
  -11.8399   15.3850  -28.6091 C   0  0  0  0  0  0  0  0  0  0  0  0
  -11.6777   16.7509  -28.6755 N   0  0  0  0  0  0  0  0  0  0  0  0
  -10.8775   17.6399  -29.4174 C   0  0  0  0  0  0  0  0  0  0  0  0
  -10.4633   17.3349  -30.6933 C   0  0  0  0  0  0  0  0  0  0  0  0
   -9.7073   18.2331  -31.4164 C   0  0  0  0  0  0  0  0  0  0  0  0
   -9.3794   19.4445  -30.8230 C   0  0  0  0  0  0  0  0  0  0  0  0
   -9.7739   19.7929  -29.5430 C   0  0  0  0  0  0  0  0  0  0  0  0
   -9.3974   21.1029  -28.9331 C   0  0  0  0  0  0  0  0  0  0  0  0
  -10.5278   18.8791  -28.8429 C   0  0  0  0  0  0  0  0  0  0  0  0
  -12.7175   14.6999  -27.8031 C   0  0  0  0  0  0  0  0  0  0  0  0
  -13.5424   15.3602  -26.9173 C   0  0  0  0  0  0  0  0  0  0  0  0
  1  2  2  0
  2  3  1  0
  3  4  2  0
  3  5  1  0
  5  6  1  0
  6  7  2  0
  7  8  1  0
  8  9  2  0
  9 10  1  0
 10 11  2  0
 11 12  1  0
 12 13  2  0
 13 14  1  0
 14 15  1  0
 15 16  2  0
 16 17  1  0
 17 18  2  0
 18 19  1  0
 19 20  1  0
 19 21  2  0
 13 22  1  0
 22 23  2  0
 23  6  1  0
 22  9  1  0
 21 15  1  0
M  END
$$$$
CHEMBL31815_diffdock_2
     RDKit          3D

 23 25  0  0  0  0  0  0  0  0999 V2000
  -17.6351   14.5769  -22.9509 C   0  0  0  0  0  0  0  0  0  0  0  0
  -16.8677   15.2916  -23.7796 C   0  0  0  0  0  0  0  0  0  0  0  0
  -15.9918   14.6344  -24.7419 C   0  0  0  0  0  0  0  0  0  0  0  0
  -15.6899   13.4079  -24.4838 O   0  0  0  0  0  0  0  0  0  0  0  0
  -15.4791   15.2624  -25.9050 N   0  0  0  0  0  0  0  0  0  0  0  0
  -14.4915   14.5752  -26.6919 C   0  0  0  0  0  0  0  0  0  0  0  0
  -14.5485   13.1966  -26.7276 C   0  0  0  0  0  0  0  0  0  0  0  0
  -13.6095   12.5577  -27.4678 C   0  0  0  0  0  0  0  0  0  0  0  0
  -12.6078   13.2357  -28.1787 C   0  0  0  0  0  0  0  0  0  0  0  0
  -11.7170   12.5535  -28.8870 N   0  0  0  0  0  0  0  0  0  0  0  0
  -10.7550   13.2415  -29.5714 C   0  0  0  0  0  0  0  0  0  0  0  0
  -10.7293   14.5822  -29.5161 N   0  0  0  0  0  0  0  0  0  0  0  0
  -11.6112   15.3319  -28.8103 C   0  0  0  0  0  0  0  0  0  0  0  0
  -11.4743   16.7007  -28.8752 N   0  0  0  0  0  0  0  0  0  0  0  0
  -10.7284   17.6072  -29.6515 C   0  0  0  0  0  0  0  0  0  0  0  0
  -10.3011   17.2816  -30.9181 C   0  0  0  0  0  0  0  0  0  0  0  0
   -9.5996   18.1954  -31.6758 C   0  0  0  0  0  0  0  0  0  0  0  0
   -9.3398   19.4437  -31.1266 C   0  0  0  0  0  0  0  0  0  0  0  0
   -9.7498   19.8139  -29.8577 C   0  0  0  0  0  0  0  0  0  0  0  0
   -9.4471   21.1638  -29.2958 C   0  0  0  0  0  0  0  0  0  0  0  0
  -10.4483   18.8837  -29.1224 C   0  0  0  0  0  0  0  0  0  0  0  0
  -12.5760   14.6342  -28.1234 C   0  0  0  0  0  0  0  0  0  0  0  0
  -13.5320   15.2838  -27.3716 C   0  0  0  0  0  0  0  0  0  0  0  0
  1  2  2  0
  2  3  1  0
  3  4  2  0
  3  5  1  0
  5  6  1  0
  6  7  2  0
  7  8  1  0
  8  9  2  0
  9 10  1  0
 10 11  2  0
 11 12  1  0
 12 13  2  0
 13 14  1  0
 14 15  1  0
 15 16  2  0
 16 17  1  0
 17 18  2  0
 18 19  1  0
 19 20  1  0
 19 21  2  0
 13 22  1  0
 22 23  2  0
 23  6  1  0
 22  9  1  0
 21 15  1  0
M  END
$$$$
CHEMBL31815_diffdock_3
     RDKit          3D

 23 25  0  0  0  0  0  0  0  0999 V2000
  -14.9225   17.8264  -22.6561 C   0  0  0  0  0  0  0  0  0  0  0  0
  -15.5584   17.5499  -23.7988 C   0  0  0  0  0  0  0  0  0  0  0  0
  -14.8951   16.8068  -24.8632 C   0  0  0  0  0  0  0  0  0  0  0  0
  -13.7974   17.3165  -25.3073 O   0  0  0  0  0  0  0  0  0  0  0  0
  -15.3865   15.5938  -25.4082 N   0  0  0  0  0  0  0  0  0  0  0  0
  -14.5899   14.8896  -26.3757 C   0  0  0  0  0  0  0  0  0  0  0  0
  -14.8052   13.5334  -26.5159 C   0  0  0  0  0  0  0  0  0  0  0  0
  -14.0451   12.8774  -27.4268 C   0  0  0  0  0  0  0  0  0  0  0  0
  -13.0717   13.5165  -28.2096 C   0  0  0  0  0  0  0  0  0  0  0  0
  -12.3600   12.8193  -29.0858 N   0  0  0  0  0  0  0  0  0  0  0  0
  -11.4212   13.4696  -29.8363 C   0  0  0  0  0  0  0  0  0  0  0  0
  -11.2384   14.7895  -29.6755 N   0  0  0  0  0  0  0  0  0  0  0  0
  -11.9342   15.5528  -28.7973 C   0  0  0  0  0  0  0  0  0  0  0  0
  -11.6539   16.9008  -28.7681 N   0  0  0  0  0  0  0  0  0  0  0  0
  -10.7947   17.7709  -29.4649 C   0  0  0  0  0  0  0  0  0  0  0  0
  -10.3909   17.4987  -30.7516 C   0  0  0  0  0  0  0  0  0  0  0  0
   -9.5752   18.3799  -31.4295 C   0  0  0  0  0  0  0  0  0  0  0  0
   -9.1771   19.5403  -30.7798 C   0  0  0  0  0  0  0  0  0  0  0  0
   -9.5585   19.8543  -29.4870 C   0  0  0  0  0  0  0  0  0  0  0  0
   -9.1059   21.1093  -28.8162 C   0  0  0  0  0  0  0  0  0  0  0  0
  -10.3728   18.9585  -28.8328 C   0  0  0  0  0  0  0  0  0  0  0  0
  -12.8764   14.8929  -28.0449 C   0  0  0  0  0  0  0  0  0  0  0  0
  -13.6506   15.5601  -27.1194 C   0  0  0  0  0  0  0  0  0  0  0  0
  1  2  2  0
  2  3  1  0
  3  4  2  0
  3  5  1  0
  5  6  1  0
  6  7  2  0
  7  8  1  0
  8  9  2  0
  9 10  1  0
 10 11  2  0
 11 12  1  0
 12 13  2  0
 13 14  1  0
 14 15  1  0
 15 16  2  0
 16 17  1  0
 17 18  2  0
 18 19  1  0
 19 20  1  0
 19 21  2  0
 13 22  1  0
 22 23  2  0
 23  6  1  0
 22  9  1  0
 21 15  1  0
M  END
$$$$
CHEMBL31815_diffdock_4
     RDKit          3D

 23 25  0  0  0  0  0  0  0  0999 V2000
  -14.5797   17.7800  -22.7513 C   0  0  0  0  0  0  0  0  0  0  0  0
  -15.0319   16.7139  -23.4187 C   0  0  0  0  0  0  0  0  0  0  0  0
  -14.4976   16.3708  -24.7309 C   0  0  0  0  0  0  0  0  0  0  0  0
  -13.4967   17.0761  -25.1343 O   0  0  0  0  0  0  0  0  0  0  0  0
  -15.0116   15.3338  -25.5496 N   0  0  0  0  0  0  0  0  0  0  0  0
  -14.1286   14.6646  -26.4656 C   0  0  0  0  0  0  0  0  0  0  0  0
  -14.2485   13.2946  -26.5840 C   0  0  0  0  0  0  0  0  0  0  0  0
  -13.4076   12.6722  -27.4460 C   0  0  0  0  0  0  0  0  0  0  0  0
  -12.4441   13.3585  -28.2006 C   0  0  0  0  0  0  0  0  0  0  0  0
  -11.6502   12.6926  -29.0293 N   0  0  0  0  0  0  0  0  0  0  0  0
  -10.7234   13.3885  -29.7533 C   0  0  0  0  0  0  0  0  0  0  0  0
  -10.6344   14.7205  -29.6150 N   0  0  0  0  0  0  0  0  0  0  0  0
  -11.4168   15.4535  -28.7852 C   0  0  0  0  0  0  0  0  0  0  0  0
  -11.2266   16.8174  -28.7748 N   0  0  0  0  0  0  0  0  0  0  0  0
  -10.4688   17.7390  -29.5213 C   0  0  0  0  0  0  0  0  0  0  0  0
  -10.0947   17.4733  -30.8182 C   0  0  0  0  0  0  0  0  0  0  0  0
   -9.3805   18.4028  -31.5442 C   0  0  0  0  0  0  0  0  0  0  0  0
   -9.0531   19.6050  -30.9321 C   0  0  0  0  0  0  0  0  0  0  0  0
   -9.4081   19.9144  -29.6306 C   0  0  0  0  0  0  0  0  0  0  0  0
   -9.0333   21.2156  -29.0013 C   0  0  0  0  0  0  0  0  0  0  0  0
  -10.1207   18.9698  -28.9281 C   0  0  0  0  0  0  0  0  0  0  0  0
  -12.3465   14.7479  -28.0592 C   0  0  0  0  0  0  0  0  0  0  0  0
  -13.2029   15.3807  -27.1833 C   0  0  0  0  0  0  0  0  0  0  0  0
  1  2  2  0
  2  3  1  0
  3  4  2  0
  3  5  1  0
  5  6  1  0
  6  7  2  0
  7  8  1  0
  8  9  2  0
  9 10  1  0
 10 11  2  0
 11 12  1  0
 12 13  2  0
 13 14  1  0
 14 15  1  0
 15 16  2  0
 16 17  1  0
 17 18  2  0
 18 19  1  0
 19 20  1  0
 19 21  2  0
 13 22  1  0
 22 23  2  0
 23  6  1  0
 22  9  1  0
 21 15  1  0
M  END
$$$$
CHEMBL31815_diffdock_5
     RDKit          3D

 23 25  0  0  0  0  0  0  0  0999 V2000
  -16.2399   16.9465  -22.8815 C   0  0  0  0  0  0  0  0  0  0  0  0
  -15.8849   17.2628  -24.1306 C   0  0  0  0  0  0  0  0  0  0  0  0
  -15.1629   16.3116  -24.9668 C   0  0  0  0  0  0  0  0  0  0  0  0
  -15.4527   15.0685  -24.7862 O   0  0  0  0  0  0  0  0  0  0  0  0
  -14.1941   16.6819  -25.9334 N   0  0  0  0  0  0  0  0  0  0  0  0
  -13.5469   15.6542  -26.7026 C   0  0  0  0  0  0  0  0  0  0  0  0
  -14.0546   14.3737  -26.6141 C   0  0  0  0  0  0  0  0  0  0  0  0
  -13.4339   13.4108  -27.3388 C   0  0  0  0  0  0  0  0  0  0  0  0
  -12.3207   13.6679  -28.1532 C   0  0  0  0  0  0  0  0  0  0  0  0
  -11.7572   12.6823  -28.8400 N   0  0  0  0  0  0  0  0  0  0  0  0
  -10.6761   12.9637  -29.6271 C   0  0  0  0  0  0  0  0  0  0  0  0
  -10.2088   14.2202  -29.6913 N   0  0  0  0  0  0  0  0  0  0  0  0
  -10.7421   15.2661  -29.0132 C   0  0  0  0  0  0  0  0  0  0  0  0
  -10.1697   16.5040  -29.2048 N   0  0  0  0  0  0  0  0  0  0  0  0
   -9.9343   17.3506  -30.3042 C   0  0  0  0  0  0  0  0  0  0  0  0
  -10.4672   17.0790  -31.5431 C   0  0  0  0  0  0  0  0  0  0  0  0
  -10.2524   17.9381  -32.6001 C   0  0  0  0  0  0  0  0  0  0  0  0
   -9.4886   19.0759  -32.3781 C   0  0  0  0  0  0  0  0  0  0  0  0
   -8.9332   19.3883  -31.1496 C   0  0  0  0  0  0  0  0  0  0  0  0
   -8.1109   20.6183  -30.9481 C   0  0  0  0  0  0  0  0  0  0  0  0
   -9.1628   18.5148  -30.1113 C   0  0  0  0  0  0  0  0  0  0  0  0
  -11.8287   14.9767  -28.2227 C   0  0  0  0  0  0  0  0  0  0  0  0
  -12.4611   15.9561  -27.4866 C   0  0  0  0  0  0  0  0  0  0  0  0
  1  2  2  0
  2  3  1  0
  3  4  2  0
  3  5  1  0
  5  6  1  0
  6  7  2  0
  7  8  1  0
  8  9  2  0
  9 10  1  0
 10 11  2  0
 11 12  1  0
 12 13  2  0
 13 14  1  0
 14 15  1  0
 15 16  2  0
 16 17  1  0
 17 18  2  0
 18 19  1  0
 19 20  1  0
 19 21  2  0
 13 22  1  0
 22 23  2  0
 23  6  1  0
 22  9  1  0
 21 15  1  0
M  END
$$$$
CHEMBL31815_diffdock_6
     RDKit          3D

 23 25  0  0  0  0  0  0  0  0999 V2000
  -14.9025   18.5119  -23.2468 C   0  0  0  0  0  0  0  0  0  0  0  0
  -15.5291   17.6448  -24.0479 C   0  0  0  0  0  0  0  0  0  0  0  0
  -14.8042   16.9352  -25.0950 C   0  0  0  0  0  0  0  0  0  0  0  0
  -13.7478   17.5207  -25.5455 O   0  0  0  0  0  0  0  0  0  0  0  0
  -15.1963   15.6769  -25.6172 N   0  0  0  0  0  0  0  0  0  0  0  0
  -14.3128   14.9892  -26.5191 C   0  0  0  0  0  0  0  0  0  0  0  0
  -14.4338   13.6172  -26.6106 C   0  0  0  0  0  0  0  0  0  0  0  0
  -13.5925   12.9774  -27.4595 C   0  0  0  0  0  0  0  0  0  0  0  0
  -12.6276   13.6480  -28.2264 C   0  0  0  0  0  0  0  0  0  0  0  0
  -11.8334   12.9653  -29.0410 N   0  0  0  0  0  0  0  0  0  0  0  0
  -10.9053   13.6461  -29.7775 C   0  0  0  0  0  0  0  0  0  0  0  0
  -10.8154   14.9805  -29.6653 N   0  0  0  0  0  0  0  0  0  0  0  0
  -11.5980   15.7303  -28.8508 C   0  0  0  0  0  0  0  0  0  0  0  0
  -11.4067   17.0940  -28.8669 N   0  0  0  0  0  0  0  0  0  0  0  0
  -10.6573   18.0015  -29.6388 C   0  0  0  0  0  0  0  0  0  0  0  0
  -10.3879   17.7595  -30.9660 C   0  0  0  0  0  0  0  0  0  0  0  0
   -9.6802   18.6763  -31.7142 C   0  0  0  0  0  0  0  0  0  0  0  0
   -9.2512   19.8414  -31.0929 C   0  0  0  0  0  0  0  0  0  0  0  0
   -9.4991   20.1258  -29.7613 C   0  0  0  0  0  0  0  0  0  0  0  0
   -9.0168   21.3869  -29.1234 C   0  0  0  0  0  0  0  0  0  0  0  0
  -10.2076   19.1946  -29.0371 C   0  0  0  0  0  0  0  0  0  0  0  0
  -12.5290   15.0398  -28.1120 C   0  0  0  0  0  0  0  0  0  0  0  0
  -13.3858   15.6904  -27.2496 C   0  0  0  0  0  0  0  0  0  0  0  0
  1  2  2  0
  2  3  1  0
  3  4  2  0
  3  5  1  0
  5  6  1  0
  6  7  2  0
  7  8  1  0
  8  9  2  0
  9 10  1  0
 10 11  2  0
 11 12  1  0
 12 13  2  0
 13 14  1  0
 14 15  1  0
 15 16  2  0
 16 17  1  0
 17 18  2  0
 18 19  1  0
 19 20  1  0
 19 21  2  0
 13 22  1  0
 22 23  2  0
 23  6  1  0
 22  9  1  0
 21 15  1  0
M  END
$$$$
CHEMBL31815_diffdock_7
     RDKit          3D

 23 25  0  0  0  0  0  0  0  0999 V2000
  -14.1054   19.2756  -23.8095 C   0  0  0  0  0  0  0  0  0  0  0  0
  -14.3015   17.9912  -24.1227 C   0  0  0  0  0  0  0  0  0  0  0  0
  -14.5398   17.5856  -25.5026 C   0  0  0  0  0  0  0  0  0  0  0  0
  -14.3307   18.4875  -26.3996 O   0  0  0  0  0  0  0  0  0  0  0  0
  -14.9736   16.2910  -25.8845 N   0  0  0  0  0  0  0  0  0  0  0  0
  -14.0915   15.4584  -26.6561 C   0  0  0  0  0  0  0  0  0  0  0  0
  -14.2454   14.0910  -26.5478 C   0  0  0  0  0  0  0  0  0  0  0  0
  -13.4052   13.3144  -27.2750 C   0  0  0  0  0  0  0  0  0  0  0  0
  -12.4099   13.8430  -28.1109 C   0  0  0  0  0  0  0  0  0  0  0  0
  -11.6185   13.0302  -28.7989 N   0  0  0  0  0  0  0  0  0  0  0  0
  -10.6602   13.5741  -29.6071 C   0  0  0  0  0  0  0  0  0  0  0  0
  -10.5386   14.9082  -29.6902 N   0  0  0  0  0  0  0  0  0  0  0  0
  -11.3168   15.7871  -29.0119 C   0  0  0  0  0  0  0  0  0  0  0  0
  -11.0908   17.1289  -29.2240 N   0  0  0  0  0  0  0  0  0  0  0  0
  -10.2782   17.8950  -30.0804 C   0  0  0  0  0  0  0  0  0  0  0  0
  -10.3473   17.7545  -31.4472 C   0  0  0  0  0  0  0  0  0  0  0  0
   -9.5666   18.5376  -32.2709 C   0  0  0  0  0  0  0  0  0  0  0  0
   -8.7159   19.4646  -31.6842 C   0  0  0  0  0  0  0  0  0  0  0  0
   -8.6137   19.6397  -30.3152 C   0  0  0  0  0  0  0  0  0  0  0  0
   -7.6825   20.6426  -29.7178 C   0  0  0  0  0  0  0  0  0  0  0  0
   -9.4037   18.8459  -29.5155 C   0  0  0  0  0  0  0  0  0  0  0  0
  -12.2783   15.2339  -28.2001 C   0  0  0  0  0  0  0  0  0  0  0  0
  -13.1339   16.0234  -27.4615 C   0  0  0  0  0  0  0  0  0  0  0  0
  1  2  2  0
  2  3  1  0
  3  4  2  0
  3  5  1  0
  5  6  1  0
  6  7  2  0
  7  8  1  0
  8  9  2  0
  9 10  1  0
 10 11  2  0
 11 12  1  0
 12 13  2  0
 13 14  1  0
 14 15  1  0
 15 16  2  0
 16 17  1  0
 17 18  2  0
 18 19  1  0
 19 20  1  0
 19 21  2  0
 13 22  1  0
 22 23  2  0
 23  6  1  0
 22  9  1  0
 21 15  1  0
M  END
$$$$
CHEMBL31815_diffdock_8
     RDKit          3D

 23 25  0  0  0  0  0  0  0  0999 V2000
  -13.6202   18.1592  -22.6418 C   0  0  0  0  0  0  0  0  0  0  0  0
  -14.4088   17.6799  -23.6086 C   0  0  0  0  0  0  0  0  0  0  0  0
  -13.8457   16.9660  -24.7482 C   0  0  0  0  0  0  0  0  0  0  0  0
  -12.8219   17.5146  -25.3073 O   0  0  0  0  0  0  0  0  0  0  0  0
  -14.3561   15.7410  -25.2469 N   0  0  0  0  0  0  0  0  0  0  0  0
  -13.5479   14.9617  -26.1448 C   0  0  0  0  0  0  0  0  0  0  0  0
  -13.7096   13.5910  -26.1243 C   0  0  0  0  0  0  0  0  0  0  0  0
  -12.9390   12.8646  -26.9706 C   0  0  0  0  0  0  0  0  0  0  0  0
  -12.0063   13.4468  -27.8424 C   0  0  0  0  0  0  0  0  0  0  0  0
  -11.2816   12.6817  -28.6485 N   0  0  0  0  0  0  0  0  0  0  0  0
  -10.3835   13.2774  -29.4887 C   0  0  0  0  0  0  0  0  0  0  0  0
  -10.2525   14.6131  -29.4838 N   0  0  0  0  0  0  0  0  0  0  0  0
  -10.9639   15.4447  -28.6836 C   0  0  0  0  0  0  0  0  0  0  0  0
  -10.7389   16.7970  -28.8148 N   0  0  0  0  0  0  0  0  0  0  0  0
  -10.0431   17.6242  -29.7162 C   0  0  0  0  0  0  0  0  0  0  0  0
   -9.9924   17.3341  -31.0601 C   0  0  0  0  0  0  0  0  0  0  0  0
   -9.3334   18.1745  -31.9323 C   0  0  0  0  0  0  0  0  0  0  0  0
   -8.7277   19.3127  -31.4177 C   0  0  0  0  0  0  0  0  0  0  0  0
   -8.7532   19.6434  -30.0741 C   0  0  0  0  0  0  0  0  0  0  0  0
   -8.0849   20.8733  -29.5539 C   0  0  0  0  0  0  0  0  0  0  0  0
   -9.4176   18.7883  -29.2249 C   0  0  0  0  0  0  0  0  0  0  0  0
  -11.8651   14.8396  -27.8403 C   0  0  0  0  0  0  0  0  0  0  0  0
  -12.6500   15.5782  -26.9805 C   0  0  0  0  0  0  0  0  0  0  0  0
  1  2  2  0
  2  3  1  0
  3  4  2  0
  3  5  1  0
  5  6  1  0
  6  7  2  0
  7  8  1  0
  8  9  2  0
  9 10  1  0
 10 11  2  0
 11 12  1  0
 12 13  2  0
 13 14  1  0
 14 15  1  0
 15 16  2  0
 16 17  1  0
 17 18  2  0
 18 19  1  0
 19 20  1  0
 19 21  2  0
 13 22  1  0
 22 23  2  0
 23  6  1  0
 22  9  1  0
 21 15  1  0
M  END
$$$$
CHEMBL31815_diffdock_9
     RDKit          3D

 23 25  0  0  0  0  0  0  0  0999 V2000
  -16.6251   17.9994  -24.2323 C   0  0  0  0  0  0  0  0  0  0  0  0
  -16.4388   16.6937  -24.4491 C   0  0  0  0  0  0  0  0  0  0  0  0
  -15.5721   16.2304  -25.5258 C   0  0  0  0  0  0  0  0  0  0  0  0
  -15.3439   17.0776  -26.4703 O   0  0  0  0  0  0  0  0  0  0  0  0
  -14.9911   14.9381  -25.5752 N   0  0  0  0  0  0  0  0  0  0  0  0
  -14.1190   14.6058  -26.6687 C   0  0  0  0  0  0  0  0  0  0  0  0
  -14.3305   13.4034  -27.3126 C   0  0  0  0  0  0  0  0  0  0  0  0
  -13.4994   13.0966  -28.3387 C   0  0  0  0  0  0  0  0  0  0  0  0
  -12.4581   13.9401  -28.7547 C   0  0  0  0  0  0  0  0  0  0  0  0
  -11.6784   13.5843  -29.7676 N   0  0  0  0  0  0  0  0  0  0  0  0
  -10.6743   14.4277  -30.1522 C   0  0  0  0  0  0  0  0  0  0  0  0
  -10.4973   15.5901  -29.5051 N   0  0  0  0  0  0  0  0  0  0  0  0
  -11.2609   16.0061  -28.4649 C   0  0  0  0  0  0  0  0  0  0  0  0
  -10.9752   17.2390  -27.9220 N   0  0  0  0  0  0  0  0  0  0  0  0
  -11.6979   18.4144  -27.6443 C   0  0  0  0  0  0  0  0  0  0  0  0
  -12.9229   18.6543  -28.2228 C   0  0  0  0  0  0  0  0  0  0  0  0
  -13.6307   19.7963  -27.9129 C   0  0  0  0  0  0  0  0  0  0  0  0
  -13.0747   20.6892  -27.0069 C   0  0  0  0  0  0  0  0  0  0  0  0
  -11.8464   20.4887  -26.4015 C   0  0  0  0  0  0  0  0  0  0  0  0
  -11.2753   21.4741  -25.4359 C   0  0  0  0  0  0  0  0  0  0  0  0
  -11.1605   19.3412  -26.7278 C   0  0  0  0  0  0  0  0  0  0  0  0
  -12.2686   15.1532  -28.0823 C   0  0  0  0  0  0  0  0  0  0  0  0
  -13.1149   15.4655  -27.0396 C   0  0  0  0  0  0  0  0  0  0  0  0
  1  2  2  0
  2  3  1  0
  3  4  2  0
  3  5  1  0
  5  6  1  0
  6  7  2  0
  7  8  1  0
  8  9  2  0
  9 10  1  0
 10 11  2  0
 11 12  1  0
 12 13  2  0
 13 14  1  0
 14 15  1  0
 15 16  2  0
 16 17  1  0
 17 18  2  0
 18 19  1  0
 19 20  1  0
 19 21  2  0
 13 22  1  0
 22 23  2  0
 23  6  1  0
 22  9  1  0
 21 15  1  0
M  END
$$$$
CHEMBL31815_diffdock_10
     RDKit          3D

 23 25  0  0  0  0  0  0  0  0999 V2000
   -9.7513   20.9279  -26.6815 C   0  0  0  0  0  0  0  0  0  0  0  0
   -9.4089   20.2414  -27.7760 C   0  0  0  0  0  0  0  0  0  0  0  0
  -10.1637   19.0640  -28.1872 C   0  0  0  0  0  0  0  0  0  0  0  0
  -11.1397   18.7226  -27.4173 O   0  0  0  0  0  0  0  0  0  0  0  0
   -9.8813   18.3088  -29.3533 N   0  0  0  0  0  0  0  0  0  0  0  0
  -10.3414   16.9492  -29.4333 C   0  0  0  0  0  0  0  0  0  0  0  0
   -9.6177   16.0744  -30.2182 C   0  0  0  0  0  0  0  0  0  0  0  0
  -10.0628   14.7960  -30.2915 C   0  0  0  0  0  0  0  0  0  0  0  0
  -11.2062   14.3467  -29.6137 C   0  0  0  0  0  0  0  0  0  0  0  0
  -11.5910   13.0817  -29.7245 N   0  0  0  0  0  0  0  0  0  0  0  0
  -12.7069   12.6725  -29.0502 C   0  0  0  0  0  0  0  0  0  0  0  0
  -13.3866   13.5490  -28.2946 N   0  0  0  0  0  0  0  0  0  0  0  0
  -13.0422   14.8516  -28.1439 C   0  0  0  0  0  0  0  0  0  0  0  0
  -13.8225   15.6214  -27.3102 N   0  0  0  0  0  0  0  0  0  0  0  0
  -14.9994   15.4289  -26.5628 C   0  0  0  0  0  0  0  0  0  0  0  0
  -15.7078   14.2518  -26.6344 C   0  0  0  0  0  0  0  0  0  0  0  0
  -16.8405   14.0698  -25.8694 C   0  0  0  0  0  0  0  0  0  0  0  0
  -17.2410   15.1017  -25.0316 C   0  0  0  0  0  0  0  0  0  0  0  0
  -16.5597   16.3019  -24.9279 C   0  0  0  0  0  0  0  0  0  0  0  0
  -17.0230   17.3935  -24.0205 C   0  0  0  0  0  0  0  0  0  0  0  0
  -15.4326   16.4580  -25.7018 C   0  0  0  0  0  0  0  0  0  0  0  0
  -11.9194   15.2574  -28.8252 C   0  0  0  0  0  0  0  0  0  0  0  0
  -11.4656   16.5572  -28.7496 C   0  0  0  0  0  0  0  0  0  0  0  0
  1  2  2  0
  2  3  1  0
  3  4  2  0
  3  5  1  0
  5  6  1  0
  6  7  2  0
  7  8  1  0
  8  9  2  0
  9 10  1  0
 10 11  2  0
 11 12  1  0
 12 13  2  0
 13 14  1  0
 14 15  1  0
 15 16  2  0
 16 17  1  0
 17 18  2  0
 18 19  1  0
 19 20  1  0
 19 21  2  0
 13 22  1  0
 22 23  2  0
 23  6  1  0
 22  9  1  0
 21 15  1  0
M  END
$$$$
CHEMBL3759359_diffdock_1
     RDKit          3D

 28 31  0  0  0  0  0  0  0  0999 V2000
  -13.2468   16.7360  -23.7114 C   0  0  0  0  0  0  0  0  0  0  0  0
  -14.2303   16.6109  -24.7387 O   0  0  0  0  0  0  0  0  0  0  0  0
  -15.0004   15.4428  -24.8127 C   0  0  0  0  0  0  0  0  0  0  0  0
  -16.1281   15.3978  -23.9832 C   0  0  0  0  0  0  0  0  0  0  0  0
  -16.4868   16.5079  -23.0912 C   0  0  0  0  0  0  0  0  0  0  0  0
  -17.5251   16.1579  -22.2082 O   0  0  0  0  0  0  0  0  0  0  0  0
  -16.9049   14.2665  -24.0251 C   0  0  0  0  0  0  0  0  0  0  0  0
  -16.6033   13.1964  -24.8499 C   0  0  0  0  0  0  0  0  0  0  0  0
  -15.4877   13.2924  -25.6432 C   0  0  0  0  0  0  0  0  0  0  0  0
  -14.6673   14.4170  -25.6394 C   0  0  0  0  0  0  0  0  0  0  0  0
  -13.5287   14.4202  -26.5773 C   0  0  0  0  0  0  0  0  0  0  0  0
  -12.8201   15.4374  -27.1457 C   0  0  0  0  0  0  0  0  0  0  0  0
  -11.8307   15.1216  -28.0034 C   0  0  0  0  0  0  0  0  0  0  0  0
  -10.9817   16.0090  -28.6957 C   0  0  0  0  0  0  0  0  0  0  0  0
  -11.0817   17.4197  -28.5571 N   0  0  0  0  0  0  0  0  0  0  0  0
  -10.2175   18.3295  -29.2709 C   0  0  2  0  0  0  0  0  0  0  0  0
  -10.4792   19.7693  -28.8401 C   0  0  0  0  0  0  0  0  0  0  0  0
  -10.2993   18.1686  -30.7362 C   0  0  0  0  0  0  0  0  0  0  0  0
  -11.3004   17.4310  -31.3228 C   0  0  0  0  0  0  0  0  0  0  0  0
  -11.3743   17.2828  -32.7094 C   0  0  0  0  0  0  0  0  0  0  0  0
  -10.4382   17.8775  -33.5200 C   0  0  0  0  0  0  0  0  0  0  0  0
   -9.4381   18.6129  -32.9545 C   0  0  0  0  0  0  0  0  0  0  0  0
   -9.3718   18.7561  -31.5652 C   0  0  0  0  0  0  0  0  0  0  0  0
  -10.0481   15.5294  -29.5117 N   0  0  0  0  0  0  0  0  0  0  0  0
   -9.8361   14.2255  -29.7422 C   0  0  0  0  0  0  0  0  0  0  0  0
  -10.6318   13.3510  -29.0949 N   0  0  0  0  0  0  0  0  0  0  0  0
  -11.6081   13.7988  -28.2436 C   0  0  0  0  0  0  0  0  0  0  0  0
  -12.7758   13.0269  -27.2742 S   0  0  0  0  0  0  0  0  0  0  0  0
  1  2  1  0
  2  3  1  0
  3  4  2  0
  4  5  1  0
  5  6  1  0
  4  7  1  0
  7  8  2  0
  8  9  1  0
  9 10  2  0
 10 11  1  0
 11 12  2  0
 12 13  1  0
 13 14  2  0
 14 15  1  0
 15 16  1  0
 16 17  1  6
 16 18  1  0
 18 19  2  0
 19 20  1  0
 20 21  2  0
 21 22  1  0
 22 23  2  0
 14 24  1  0
 24 25  2  0
 25 26  1  0
 26 27  2  0
 27 28  1  0
 10  3  1  0
 28 11  1  0
 27 13  1  0
 23 18  1  0
M  END
$$$$
CHEMBL3759359_diffdock_2
     RDKit          3D

 28 31  0  0  0  0  0  0  0  0999 V2000
  -15.3109   17.0707  -26.4041 C   0  0  0  0  0  0  0  0  0  0  0  0
  -14.6457   15.9784  -25.7695 O   0  0  0  0  0  0  0  0  0  0  0  0
  -15.2766   14.7286  -25.7160 C   0  0  0  0  0  0  0  0  0  0  0  0
  -16.4436   14.6629  -24.9442 C   0  0  0  0  0  0  0  0  0  0  0  0
  -16.9786   15.8326  -24.2356 C   0  0  0  0  0  0  0  0  0  0  0  0
  -17.9827   15.4762  -23.3164 O   0  0  0  0  0  0  0  0  0  0  0  0
  -17.0872   13.4528  -24.8645 C   0  0  0  0  0  0  0  0  0  0  0  0
  -16.6176   12.3247  -25.5151 C   0  0  0  0  0  0  0  0  0  0  0  0
  -15.4704   12.4440  -26.2587 C   0  0  0  0  0  0  0  0  0  0  0  0
  -14.7804   13.6475  -26.3731 C   0  0  0  0  0  0  0  0  0  0  0  0
  -13.5910   13.6588  -27.2455 C   0  0  0  0  0  0  0  0  0  0  0  0
  -12.7704   14.6689  -27.6533 C   0  0  0  0  0  0  0  0  0  0  0  0
  -11.7599   14.3682  -28.4915 C   0  0  0  0  0  0  0  0  0  0  0  0
  -10.8026   15.2517  -29.0305 C   0  0  0  0  0  0  0  0  0  0  0  0
  -10.7974   16.6410  -28.7313 N   0  0  0  0  0  0  0  0  0  0  0  0
   -9.7515   17.5257  -29.1867 C   0  0  2  0  0  0  0  0  0  0  0  0
   -9.9727   18.9383  -28.6550 C   0  0  0  0  0  0  0  0  0  0  0  0
   -9.5830   17.5084  -30.6534 C   0  0  0  0  0  0  0  0  0  0  0  0
  -10.5660   17.0234  -31.4834 C   0  0  0  0  0  0  0  0  0  0  0  0
  -10.4024   17.0103  -32.8702 C   0  0  0  0  0  0  0  0  0  0  0  0
   -9.2445   17.4867  -33.4352 C   0  0  0  0  0  0  0  0  0  0  0  0
   -8.2589   17.9716  -32.6262 C   0  0  0  0  0  0  0  0  0  0  0  0
   -8.4311   17.9809  -31.2387 C   0  0  0  0  0  0  0  0  0  0  0  0
   -9.8630   14.7891  -29.8496 N   0  0  0  0  0  0  0  0  0  0  0  0
   -9.7426   13.5064  -30.2217 C   0  0  0  0  0  0  0  0  0  0  0  0
  -10.6432   12.6361  -29.7231 N   0  0  0  0  0  0  0  0  0  0  0  0
  -11.6299   13.0670  -28.8750 C   0  0  0  0  0  0  0  0  0  0  0  0
  -12.9116   12.2939  -28.0636 S   0  0  0  0  0  0  0  0  0  0  0  0
  1  2  1  0
  2  3  1  0
  3  4  2  0
  4  5  1  0
  5  6  1  0
  4  7  1  0
  7  8  2  0
  8  9  1  0
  9 10  2  0
 10 11  1  0
 11 12  2  0
 12 13  1  0
 13 14  2  0
 14 15  1  0
 15 16  1  0
 16 17  1  6
 16 18  1  0
 18 19  2  0
 19 20  1  0
 20 21  2  0
 21 22  1  0
 22 23  2  0
 14 24  1  0
 24 25  2  0
 25 26  1  0
 26 27  2  0
 27 28  1  0
 10  3  1  0
 28 11  1  0
 27 13  1  0
 23 18  1  0
M  END
$$$$
CHEMBL3759359_diffdock_3
     RDKit          3D

 28 31  0  0  0  0  0  0  0  0999 V2000
  -16.3747   10.4179  -27.6903 C   0  0  0  0  0  0  0  0  0  0  0  0
  -15.7109   10.9323  -26.5357 O   0  0  0  0  0  0  0  0  0  0  0  0
  -16.1025   12.1726  -26.0149 C   0  0  0  0  0  0  0  0  0  0  0  0
  -17.2424   12.1640  -25.2010 C   0  0  0  0  0  0  0  0  0  0  0  0
  -17.9828   10.9305  -24.9063 C   0  0  0  0  0  0  0  0  0  0  0  0
  -19.3589   11.1713  -24.7372 O   0  0  0  0  0  0  0  0  0  0  0  0
  -17.6592   13.3622  -24.6760 C   0  0  0  0  0  0  0  0  0  0  0  0
  -16.9922   14.5486  -24.9286 C   0  0  0  0  0  0  0  0  0  0  0  0
  -15.8804   14.5011  -25.7316 C   0  0  0  0  0  0  0  0  0  0  0  0
  -15.4155   13.3128  -26.2880 C   0  0  0  0  0  0  0  0  0  0  0  0
  -14.1790   13.3856  -27.0891 C   0  0  0  0  0  0  0  0  0  0  0  0
  -13.4049   14.4400  -27.4750 C   0  0  0  0  0  0  0  0  0  0  0  0
  -12.3276   14.1901  -28.2441 C   0  0  0  0  0  0  0  0  0  0  0  0
  -11.4009   15.1246  -28.7495 C   0  0  0  0  0  0  0  0  0  0  0  0
  -11.5068   16.5174  -28.4879 N   0  0  0  0  0  0  0  0  0  0  0  0
  -10.4939   17.4602  -28.8990 C   0  0  2  0  0  0  0  0  0  0  0  0
  -10.7456   18.8276  -28.2715 C   0  0  0  0  0  0  0  0  0  0  0  0
  -10.3496   17.5445  -30.3659 C   0  0  0  0  0  0  0  0  0  0  0  0
   -9.1585   17.9046  -30.9508 C   0  0  0  0  0  0  0  0  0  0  0  0
   -9.0266   17.9817  -32.3388 C   0  0  0  0  0  0  0  0  0  0  0  0
  -10.0958   17.6963  -33.1527 C   0  0  0  0  0  0  0  0  0  0  0  0
  -11.2851   17.3374  -32.5889 C   0  0  0  0  0  0  0  0  0  0  0  0
  -11.4082   17.2627  -31.1982 C   0  0  0  0  0  0  0  0  0  0  0  0
  -10.3847   14.7088  -29.4992 N   0  0  0  0  0  0  0  0  0  0  0  0
  -10.1563   13.4292  -29.8290 C   0  0  0  0  0  0  0  0  0  0  0  0
  -11.0251   12.5109  -29.3610 N   0  0  0  0  0  0  0  0  0  0  0  0
  -12.0878   12.8924  -28.5841 C   0  0  0  0  0  0  0  0  0  0  0  0
  -13.3615   12.0521  -27.8289 S   0  0  0  0  0  0  0  0  0  0  0  0
  1  2  1  0
  2  3  1  0
  3  4  2  0
  4  5  1  0
  5  6  1  0
  4  7  1  0
  7  8  2  0
  8  9  1  0
  9 10  2  0
 10 11  1  0
 11 12  2  0
 12 13  1  0
 13 14  2  0
 14 15  1  0
 15 16  1  0
 16 17  1  6
 16 18  1  0
 18 19  2  0
 19 20  1  0
 20 21  2  0
 21 22  1  0
 22 23  2  0
 14 24  1  0
 24 25  2  0
 25 26  1  0
 26 27  2  0
 27 28  1  0
 10  3  1  0
 28 11  1  0
 27 13  1  0
 23 18  1  0
M  END
$$$$
CHEMBL3759359_diffdock_4
     RDKit          3D

 28 31  0  0  0  0  0  0  0  0999 V2000
  -13.8177   16.5907  -24.5383 C   0  0  0  0  0  0  0  0  0  0  0  0
  -14.7211   16.4715  -25.6373 O   0  0  0  0  0  0  0  0  0  0  0  0
  -15.5161   15.3234  -25.7506 C   0  0  0  0  0  0  0  0  0  0  0  0
  -16.7161   15.3343  -25.0283 C   0  0  0  0  0  0  0  0  0  0  0  0
  -17.1215   16.4801  -24.2040 C   0  0  0  0  0  0  0  0  0  0  0  0
  -16.7318   16.3251  -22.8608 O   0  0  0  0  0  0  0  0  0  0  0  0
  -17.5196   14.2242  -25.1113 C   0  0  0  0  0  0  0  0  0  0  0  0
  -17.1760   13.1220  -25.8751 C   0  0  0  0  0  0  0  0  0  0  0  0
  -15.9898   13.1634  -26.5638 C   0  0  0  0  0  0  0  0  0  0  0  0
  -15.1396   14.2645  -26.5146 C   0  0  0  0  0  0  0  0  0  0  0  0
  -13.9201   14.2082  -27.3425 C   0  0  0  0  0  0  0  0  0  0  0  0
  -13.0758   15.1825  -27.7875 C   0  0  0  0  0  0  0  0  0  0  0  0
  -12.0392   14.8186  -28.5667 C   0  0  0  0  0  0  0  0  0  0  0  0
  -11.0549   15.6567  -29.1291 C   0  0  0  0  0  0  0  0  0  0  0  0
  -11.0468   17.0629  -28.9237 N   0  0  0  0  0  0  0  0  0  0  0  0
  -10.0431   17.9228  -29.5042 C   0  0  2  0  0  0  0  0  0  0  0  0
  -10.2164   19.3575  -29.0157 C   0  0  0  0  0  0  0  0  0  0  0  0
  -10.0013   17.8431  -30.9779 C   0  0  0  0  0  0  0  0  0  0  0  0
   -8.9848   18.4227  -31.6998 C   0  0  0  0  0  0  0  0  0  0  0  0
   -8.9490   18.3434  -33.0935 C   0  0  0  0  0  0  0  0  0  0  0  0
   -9.9391   17.6781  -33.7747 C   0  0  0  0  0  0  0  0  0  0  0  0
  -10.9552   17.0972  -33.0739 C   0  0  0  0  0  0  0  0  0  0  0  0
  -10.9832   17.1815  -31.6786 C   0  0  0  0  0  0  0  0  0  0  0  0
  -10.0915   15.1331  -29.8809 N   0  0  0  0  0  0  0  0  0  0  0  0
   -9.9706   13.8273  -30.1615 C   0  0  0  0  0  0  0  0  0  0  0  0
  -10.8967   12.9993  -29.6384 N   0  0  0  0  0  0  0  0  0  0  0  0
  -11.9084   13.4935  -28.8571 C   0  0  0  0  0  0  0  0  0  0  0  0
  -13.2255   12.7863  -28.0422 S   0  0  0  0  0  0  0  0  0  0  0  0
  1  2  1  0
  2  3  1  0
  3  4  2  0
  4  5  1  0
  5  6  1  0
  4  7  1  0
  7  8  2  0
  8  9  1  0
  9 10  2  0
 10 11  1  0
 11 12  2  0
 12 13  1  0
 13 14  2  0
 14 15  1  0
 15 16  1  0
 16 17  1  6
 16 18  1  0
 18 19  2  0
 19 20  1  0
 20 21  2  0
 21 22  1  0
 22 23  2  0
 14 24  1  0
 24 25  2  0
 25 26  1  0
 26 27  2  0
 27 28  1  0
 10  3  1  0
 28 11  1  0
 27 13  1  0
 23 18  1  0
M  END
$$$$
CHEMBL3759359_diffdock_5
     RDKit          3D

 28 31  0  0  0  0  0  0  0  0999 V2000
  -14.8900   16.9181  -25.0542 C   0  0  0  0  0  0  0  0  0  0  0  0
  -15.3314   16.1268  -26.1575 O   0  0  0  0  0  0  0  0  0  0  0  0
  -15.7894   14.8229  -25.9268 C   0  0  0  0  0  0  0  0  0  0  0  0
  -16.9687   14.7100  -25.1795 C   0  0  0  0  0  0  0  0  0  0  0  0
  -17.6864   15.8856  -24.6701 C   0  0  0  0  0  0  0  0  0  0  0  0
  -18.7221   15.5271  -23.7875 O   0  0  0  0  0  0  0  0  0  0  0  0
  -17.4458   13.4472  -24.9293 C   0  0  0  0  0  0  0  0  0  0  0  0
  -16.8009   12.3119  -25.3893 C   0  0  0  0  0  0  0  0  0  0  0  0
  -15.6498   12.4787  -26.1175 C   0  0  0  0  0  0  0  0  0  0  0  0
  -15.1243   13.7364  -26.3999 C   0  0  0  0  0  0  0  0  0  0  0  0
  -13.9113   13.7842  -27.2379 C   0  0  0  0  0  0  0  0  0  0  0  0
  -13.0675   14.8057  -27.5610 C   0  0  0  0  0  0  0  0  0  0  0  0
  -12.0380   14.5425  -28.3888 C   0  0  0  0  0  0  0  0  0  0  0  0
  -11.0554   15.4438  -28.8468 C   0  0  0  0  0  0  0  0  0  0  0  0
  -11.0414   16.8120  -28.4630 N   0  0  0  0  0  0  0  0  0  0  0  0
  -10.0108   17.7255  -28.8959 C   0  0  2  0  0  0  0  0  0  0  0  0
  -10.2106   19.0997  -28.2646 C   0  0  0  0  0  0  0  0  0  0  0  0
   -9.8946   17.8052  -30.3656 C   0  0  0  0  0  0  0  0  0  0  0  0
  -10.8505   17.2631  -31.1919 C   0  0  0  0  0  0  0  0  0  0  0  0
  -10.7367   17.3422  -32.5815 C   0  0  0  0  0  0  0  0  0  0  0  0
   -9.6564   17.9694  -33.1530 C   0  0  0  0  0  0  0  0  0  0  0  0
   -8.6987   18.5127  -32.3477 C   0  0  0  0  0  0  0  0  0  0  0  0
   -8.8206   18.4289  -30.9574 C   0  0  0  0  0  0  0  0  0  0  0  0
  -10.0995   15.0188  -29.6673 N   0  0  0  0  0  0  0  0  0  0  0  0
   -9.9847   13.7595  -30.1139 C   0  0  0  0  0  0  0  0  0  0  0  0
  -10.9094   12.8732  -29.6939 N   0  0  0  0  0  0  0  0  0  0  0  0
  -11.9135   13.2654  -28.8476 C   0  0  0  0  0  0  0  0  0  0  0  0
  -13.2265   12.4623  -28.1196 S   0  0  0  0  0  0  0  0  0  0  0  0
  1  2  1  0
  2  3  1  0
  3  4  2  0
  4  5  1  0
  5  6  1  0
  4  7  1  0
  7  8  2  0
  8  9  1  0
  9 10  2  0
 10 11  1  0
 11 12  2  0
 12 13  1  0
 13 14  2  0
 14 15  1  0
 15 16  1  0
 16 17  1  6
 16 18  1  0
 18 19  2  0
 19 20  1  0
 20 21  2  0
 21 22  1  0
 22 23  2  0
 14 24  1  0
 24 25  2  0
 25 26  1  0
 26 27  2  0
 27 28  1  0
 10  3  1  0
 28 11  1  0
 27 13  1  0
 23 18  1  0
M  END
$$$$
CHEMBL3759359_diffdock_6
     RDKit          3D

 28 31  0  0  0  0  0  0  0  0999 V2000
  -15.4943   17.3886  -26.9223 C   0  0  0  0  0  0  0  0  0  0  0  0
  -14.8602   16.3948  -26.1170 O   0  0  0  0  0  0  0  0  0  0  0  0
  -15.4576   15.1344  -25.9857 C   0  0  0  0  0  0  0  0  0  0  0  0
  -16.6466   15.0929  -25.2464 C   0  0  0  0  0  0  0  0  0  0  0  0
  -17.2362   16.2969  -24.6469 C   0  0  0  0  0  0  0  0  0  0  0  0
  -18.2798   15.9833  -23.7564 O   0  0  0  0  0  0  0  0  0  0  0  0
  -17.2588   13.8737  -25.0925 C   0  0  0  0  0  0  0  0  0  0  0  0
  -16.7375   12.7137  -25.6394 C   0  0  0  0  0  0  0  0  0  0  0  0
  -15.5708   12.8101  -26.3554 C   0  0  0  0  0  0  0  0  0  0  0  0
  -14.9109   14.0215  -26.5420 C   0  0  0  0  0  0  0  0  0  0  0  0
  -13.6949   14.0017  -27.3768 C   0  0  0  0  0  0  0  0  0  0  0  0
  -12.8315   14.9887  -27.7514 C   0  0  0  0  0  0  0  0  0  0  0  0
  -11.8046   14.6623  -28.5597 C   0  0  0  0  0  0  0  0  0  0  0  0
  -10.8043   15.5193  -29.0621 C   0  0  0  0  0  0  0  0  0  0  0  0
  -10.7661   16.9058  -28.7528 N   0  0  0  0  0  0  0  0  0  0  0  0
   -9.6566   17.7505  -29.1259 C   0  0  2  0  0  0  0  0  0  0  0  0
   -9.8156   19.1437  -28.5252 C   0  0  0  0  0  0  0  0  0  0  0  0
   -9.4385   17.8007  -30.5853 C   0  0  0  0  0  0  0  0  0  0  0  0
   -8.3348   18.4173  -31.1256 C   0  0  0  0  0  0  0  0  0  0  0  0
   -8.1323   18.4610  -32.5066 C   0  0  0  0  0  0  0  0  0  0  0  0
   -9.0418   17.8826  -33.3583 C   0  0  0  0  0  0  0  0  0  0  0  0
  -10.1426   17.2665  -32.8389 C   0  0  0  0  0  0  0  0  0  0  0  0
  -10.3374   17.2275  -31.4549 C   0  0  0  0  0  0  0  0  0  0  0  0
   -9.8540   15.0332  -29.8548 N   0  0  0  0  0  0  0  0  0  0  0  0
   -9.7613   13.7497  -30.2322 C   0  0  0  0  0  0  0  0  0  0  0  0
  -10.7033   12.9044  -29.7684 N   0  0  0  0  0  0  0  0  0  0  0  0
  -11.7025   13.3601  -28.9484 C   0  0  0  0  0  0  0  0  0  0  0  0
  -13.0321   12.6218  -28.1831 S   0  0  0  0  0  0  0  0  0  0  0  0
  1  2  1  0
  2  3  1  0
  3  4  2  0
  4  5  1  0
  5  6  1  0
  4  7  1  0
  7  8  2  0
  8  9  1  0
  9 10  2  0
 10 11  1  0
 11 12  2  0
 12 13  1  0
 13 14  2  0
 14 15  1  0
 15 16  1  0
 16 17  1  6
 16 18  1  0
 18 19  2  0
 19 20  1  0
 20 21  2  0
 21 22  1  0
 22 23  2  0
 14 24  1  0
 24 25  2  0
 25 26  1  0
 26 27  2  0
 27 28  1  0
 10  3  1  0
 28 11  1  0
 27 13  1  0
 23 18  1  0
M  END
$$$$
CHEMBL3759359_diffdock_7
     RDKit          3D

 28 31  0  0  0  0  0  0  0  0999 V2000
  -15.6133   10.1590  -25.8976 C   0  0  0  0  0  0  0  0  0  0  0  0
  -15.2151   11.4097  -26.4592 O   0  0  0  0  0  0  0  0  0  0  0  0
  -15.5139   12.5952  -25.7750 C   0  0  0  0  0  0  0  0  0  0  0  0
  -16.6383   12.5554  -24.9407 C   0  0  0  0  0  0  0  0  0  0  0  0
  -17.4548   11.3445  -24.7872 C   0  0  0  0  0  0  0  0  0  0  0  0
  -18.5205   11.5397  -23.8892 O   0  0  0  0  0  0  0  0  0  0  0  0
  -16.9650   13.7003  -24.2570 C   0  0  0  0  0  0  0  0  0  0  0  0
  -16.2240   14.8639  -24.3728 C   0  0  0  0  0  0  0  0  0  0  0  0
  -15.1314   14.8486  -25.2029 C   0  0  0  0  0  0  0  0  0  0  0  0
  -14.7565   13.7145  -25.9176 C   0  0  0  0  0  0  0  0  0  0  0  0
  -13.5313   13.8100  -26.7335 C   0  0  0  0  0  0  0  0  0  0  0  0
  -12.7218   14.8637  -27.0408 C   0  0  0  0  0  0  0  0  0  0  0  0
  -11.6681   14.6413  -27.8498 C   0  0  0  0  0  0  0  0  0  0  0  0
  -10.7130   15.5804  -28.2897 C   0  0  0  0  0  0  0  0  0  0  0  0
  -10.7588   16.9477  -27.9052 N   0  0  0  0  0  0  0  0  0  0  0  0
   -9.7791   17.9093  -28.3518 C   0  0  2  0  0  0  0  0  0  0  0  0
  -10.0294   19.2700  -27.7093 C   0  0  0  0  0  0  0  0  0  0  0  0
   -9.6940   18.0012  -29.8230 C   0  0  0  0  0  0  0  0  0  0  0  0
   -8.5793   18.5091  -30.4474 C   0  0  0  0  0  0  0  0  0  0  0  0
   -8.5030   18.5928  -31.8392 C   0  0  0  0  0  0  0  0  0  0  0  0
   -9.5513   18.1647  -32.6170 C   0  0  0  0  0  0  0  0  0  0  0  0
  -10.6650   17.6581  -32.0137 C   0  0  0  0  0  0  0  0  0  0  0  0
  -10.7329   17.5780  -30.6194 C   0  0  0  0  0  0  0  0  0  0  0  0
   -9.7265   15.1935  -29.0928 N   0  0  0  0  0  0  0  0  0  0  0  0
   -9.5551   13.9401  -29.5376 C   0  0  0  0  0  0  0  0  0  0  0  0
  -10.4522   13.0183  -29.1348 N   0  0  0  0  0  0  0  0  0  0  0  0
  -11.4860   13.3704  -28.3067 C   0  0  0  0  0  0  0  0  0  0  0  0
  -12.7800   12.5164  -27.6030 S   0  0  0  0  0  0  0  0  0  0  0  0
  1  2  1  0
  2  3  1  0
  3  4  2  0
  4  5  1  0
  5  6  1  0
  4  7  1  0
  7  8  2  0
  8  9  1  0
  9 10  2  0
 10 11  1  0
 11 12  2  0
 12 13  1  0
 13 14  2  0
 14 15  1  0
 15 16  1  0
 16 17  1  1
 16 18  1  0
 18 19  2  0
 19 20  1  0
 20 21  2  0
 21 22  1  0
 22 23  2  0
 14 24  1  0
 24 25  2  0
 25 26  1  0
 26 27  2  0
 27 28  1  0
 10  3  1  0
 28 11  1  0
 27 13  1  0
 23 18  1  0
M  END
$$$$
CHEMBL3759359_diffdock_8
     RDKit          3D

 28 31  0  0  0  0  0  0  0  0999 V2000
  -15.8968   10.9270  -27.2406 C   0  0  0  0  0  0  0  0  0  0  0  0
  -15.2355   11.7709  -26.2979 O   0  0  0  0  0  0  0  0  0  0  0  0
  -15.7561   13.0446  -26.0339 C   0  0  0  0  0  0  0  0  0  0  0  0
  -16.9090   13.0837  -25.2393 C   0  0  0  0  0  0  0  0  0  0  0  0
  -17.5347   11.8651  -24.7100 C   0  0  0  0  0  0  0  0  0  0  0  0
  -18.6669   12.1539  -23.9258 O   0  0  0  0  0  0  0  0  0  0  0  0
  -17.4507   14.3145  -24.9630 C   0  0  0  0  0  0  0  0  0  0  0  0
  -16.8944   15.4882  -25.4420 C   0  0  0  0  0  0  0  0  0  0  0  0
  -15.7646   15.3938  -26.2151 C   0  0  0  0  0  0  0  0  0  0  0  0
  -15.1751   14.1711  -26.5239 C   0  0  0  0  0  0  0  0  0  0  0  0
  -13.9327   14.2067  -27.3182 C   0  0  0  0  0  0  0  0  0  0  0  0
  -13.0853   15.2264  -27.6380 C   0  0  0  0  0  0  0  0  0  0  0  0
  -12.0242   14.9499  -28.4203 C   0  0  0  0  0  0  0  0  0  0  0  0
  -11.0324   15.8468  -28.8667 C   0  0  0  0  0  0  0  0  0  0  0  0
  -11.0428   17.2249  -28.5199 N   0  0  0  0  0  0  0  0  0  0  0  0
  -10.0423   18.1495  -28.9975 C   0  0  2  0  0  0  0  0  0  0  0  0
  -10.2614   19.5354  -28.3989 C   0  0  0  0  0  0  0  0  0  0  0  0
   -9.9566   18.1922  -30.4708 C   0  0  0  0  0  0  0  0  0  0  0  0
  -10.9313   17.6335  -31.2633 C   0  0  0  0  0  0  0  0  0  0  0  0
  -10.8465   17.6776  -32.6565 C   0  0  0  0  0  0  0  0  0  0  0  0
   -9.7763   18.2863  -33.2659 C   0  0  0  0  0  0  0  0  0  0  0  0
   -8.8002   18.8458  -32.4945 C   0  0  0  0  0  0  0  0  0  0  0  0
   -8.8932   18.7970  -31.1003 C   0  0  0  0  0  0  0  0  0  0  0  0
  -10.0439   15.4082  -29.6400 N   0  0  0  0  0  0  0  0  0  0  0  0
   -9.9033   14.1384  -30.0478 C   0  0  0  0  0  0  0  0  0  0  0  0
  -10.8360   13.2558  -29.6377 N   0  0  0  0  0  0  0  0  0  0  0  0
  -11.8734   13.6619  -28.8395 C   0  0  0  0  0  0  0  0  0  0  0  0
  -13.2061   12.8675  -28.1382 S   0  0  0  0  0  0  0  0  0  0  0  0
  1  2  1  0
  2  3  1  0
  3  4  2  0
  4  5  1  0
  5  6  1  0
  4  7  1  0
  7  8  2  0
  8  9  1  0
  9 10  2  0
 10 11  1  0
 11 12  2  0
 12 13  1  0
 13 14  2  0
 14 15  1  0
 15 16  1  0
 16 17  1  6
 16 18  1  0
 18 19  2  0
 19 20  1  0
 20 21  2  0
 21 22  1  0
 22 23  2  0
 14 24  1  0
 24 25  2  0
 25 26  1  0
 26 27  2  0
 27 28  1  0
 10  3  1  0
 28 11  1  0
 27 13  1  0
 23 18  1  0
M  END
$$$$
CHEMBL3759359_diffdock_9
     RDKit          3D

 28 31  0  0  0  0  0  0  0  0999 V2000
  -15.1278   16.8253  -24.5932 C   0  0  0  0  0  0  0  0  0  0  0  0
  -15.2875   16.1438  -25.8375 O   0  0  0  0  0  0  0  0  0  0  0  0
  -15.7279   14.8138  -25.8398 C   0  0  0  0  0  0  0  0  0  0  0  0
  -16.9228   14.5620  -25.1537 C   0  0  0  0  0  0  0  0  0  0  0  0
  -17.6732   15.6263  -24.4749 C   0  0  0  0  0  0  0  0  0  0  0  0
  -18.6818   15.1086  -23.6413 O   0  0  0  0  0  0  0  0  0  0  0  0
  -17.3836   13.2689  -25.1303 C   0  0  0  0  0  0  0  0  0  0  0  0
  -16.7079   12.2351  -25.7556 C   0  0  0  0  0  0  0  0  0  0  0  0
  -15.5426   12.5364  -26.4146 C   0  0  0  0  0  0  0  0  0  0  0  0
  -15.0326   13.8304  -26.4692 C   0  0  0  0  0  0  0  0  0  0  0  0
  -13.8007   14.0336  -27.2547 C   0  0  0  0  0  0  0  0  0  0  0  0
  -13.0961   15.1584  -27.5687 C   0  0  0  0  0  0  0  0  0  0  0  0
  -12.0019   15.0278  -28.3433 C   0  0  0  0  0  0  0  0  0  0  0  0
  -11.1368   16.0505  -28.7828 C   0  0  0  0  0  0  0  0  0  0  0  0
  -11.3351   17.4144  -28.4365 N   0  0  0  0  0  0  0  0  0  0  0  0
  -10.3922   18.4474  -28.7938 C   0  0  2  0  0  0  0  0  0  0  0  0
  -10.7926   19.7804  -28.1693 C   0  0  0  0  0  0  0  0  0  0  0  0
  -10.1892   18.5602  -30.2518 C   0  0  0  0  0  0  0  0  0  0  0  0
  -11.0270   17.9338  -31.1440 C   0  0  0  0  0  0  0  0  0  0  0  0
  -10.8316   18.0445  -32.5223 C   0  0  0  0  0  0  0  0  0  0  0  0
   -9.7879   18.7889  -33.0159 C   0  0  0  0  0  0  0  0  0  0  0  0
   -8.9470   19.4171  -32.1446 C   0  0  0  0  0  0  0  0  0  0  0  0
   -9.1501   19.3008  -30.7661 C   0  0  0  0  0  0  0  0  0  0  0  0
  -10.0927   15.7495  -29.5489 N   0  0  0  0  0  0  0  0  0  0  0  0
   -9.7795   14.5105  -29.9554 C   0  0  0  0  0  0  0  0  0  0  0  0
  -10.5877   13.5101  -29.5518 N   0  0  0  0  0  0  0  0  0  0  0  0
  -11.6760   13.7722  -28.7611 C   0  0  0  0  0  0  0  0  0  0  0  0
  -12.8945   12.8051  -28.0691 S   0  0  0  0  0  0  0  0  0  0  0  0
  1  2  1  0
  2  3  1  0
  3  4  2  0
  4  5  1  0
  5  6  1  0
  4  7  1  0
  7  8  2  0
  8  9  1  0
  9 10  2  0
 10 11  1  0
 11 12  2  0
 12 13  1  0
 13 14  2  0
 14 15  1  0
 15 16  1  0
 16 17  1  6
 16 18  1  0
 18 19  2  0
 19 20  1  0
 20 21  2  0
 21 22  1  0
 22 23  2  0
 14 24  1  0
 24 25  2  0
 25 26  1  0
 26 27  2  0
 27 28  1  0
 10  3  1  0
 28 11  1  0
 27 13  1  0
 23 18  1  0
M  END
$$$$
CHEMBL3759359_diffdock_10
     RDKit          3D

 28 31  0  0  0  0  0  0  0  0999 V2000
  -10.9012   19.8952  -29.9105 C   0  0  0  0  0  0  0  0  0  0  0  0
   -9.9716   19.1498  -29.1241 O   0  0  0  0  0  0  0  0  0  0  0  0
   -8.8898   18.5205  -29.7540 C   0  0  0  0  0  0  0  0  0  0  0  0
   -7.8708   19.3651  -30.2125 C   0  0  0  0  0  0  0  0  0  0  0  0
   -7.9279   20.8225  -30.0416 C   0  0  0  0  0  0  0  0  0  0  0  0
   -6.8162   21.4632  -30.6193 O   0  0  0  0  0  0  0  0  0  0  0  0
   -6.7961   18.7845  -30.8393 C   0  0  0  0  0  0  0  0  0  0  0  0
   -6.7018   17.4156  -31.0225 C   0  0  0  0  0  0  0  0  0  0  0  0
   -7.7272   16.6335  -30.5534 C   0  0  0  0  0  0  0  0  0  0  0  0
   -8.8384   17.1715  -29.9104 C   0  0  0  0  0  0  0  0  0  0  0  0
   -9.8465   16.2210  -29.4044 C   0  0  0  0  0  0  0  0  0  0  0  0
  -11.0123   16.4078  -28.7218 C   0  0  0  0  0  0  0  0  0  0  0  0
  -11.7211   15.3197  -28.3640 C   0  0  0  0  0  0  0  0  0  0  0  0
  -12.9424   15.2864  -27.6606 C   0  0  0  0  0  0  0  0  0  0  0  0
  -13.6006   16.4681  -27.2249 N   0  0  0  0  0  0  0  0  0  0  0  0
  -14.6630   16.4454  -26.2477 C   0  0  2  0  0  0  0  0  0  0  0  0
  -15.5393   17.6873  -26.3772 C   0  0  0  0  0  0  0  0  0  0  0  0
  -14.1704   16.2591  -24.8684 C   0  0  0  0  0  0  0  0  0  0  0  0
  -14.9065   15.5761  -23.9292 C   0  0  0  0  0  0  0  0  0  0  0  0
  -14.4358   15.4015  -22.6261 C   0  0  0  0  0  0  0  0  0  0  0  0
  -13.2163   15.9144  -22.2560 C   0  0  0  0  0  0  0  0  0  0  0  0
  -12.4730   16.5948  -23.1755 C   0  0  0  0  0  0  0  0  0  0  0  0
  -12.9521   16.7650  -24.4780 C   0  0  0  0  0  0  0  0  0  0  0  0
  -13.5152   14.1187  -27.3852 N   0  0  0  0  0  0  0  0  0  0  0  0
  -13.0127   12.9245  -27.7315 C   0  0  0  0  0  0  0  0  0  0  0  0
  -11.8453   12.9225  -28.4054 N   0  0  0  0  0  0  0  0  0  0  0  0
  -11.2180   14.1019  -28.7117 C   0  0  0  0  0  0  0  0  0  0  0  0
   -9.7756   14.4965  -29.5259 S   0  0  0  0  0  0  0  0  0  0  0  0
  1  2  1  0
  2  3  1  0
  3  4  2  0
  4  5  1  0
  5  6  1  0
  4  7  1  0
  7  8  2  0
  8  9  1  0
  9 10  2  0
 10 11  1  0
 11 12  2  0
 12 13  1  0
 13 14  2  0
 14 15  1  0
 15 16  1  0
 16 17  1  1
 16 18  1  0
 18 19  2  0
 19 20  1  0
 20 21  2  0
 21 22  1  0
 22 23  2  0
 14 24  1  0
 24 25  2  0
 25 26  1  0
 26 27  2  0
 27 28  1  0
 10  3  1  0
 28 11  1  0
 27 13  1  0
 23 18  1  0
M  END
$$$$
CHEMBL503418_diffdock_1
     RDKit          3D

 41 46  0  0  0  0  0  0  0  0999 V2000
  -20.7189   13.5806  -19.8937 C   0  0  0  0  0  0  0  0  0  0  0  0
  -19.3089   13.8516  -20.0876 N   0  0  0  0  0  0  0  0  0  0  0  0
  -19.0535   15.1922  -20.5499 C   0  0  0  0  0  0  0  0  0  0  0  0
  -19.2155   15.3130  -22.0546 C   0  0  0  0  0  0  0  0  0  0  0  0
  -18.5097   14.2731  -22.7492 N   0  0  0  0  0  4  0  0  0  0  0  0
  -18.7366   14.3844  -24.1746 C   0  0  0  0  0  0  0  0  0  0  0  0
  -17.5867   13.7079  -24.8645 C   0  0  0  0  0  0  0  0  0  0  0  0
  -16.4705   14.3558  -25.2968 C   0  0  0  0  0  0  0  0  0  0  0  0
  -15.4604   13.6574  -25.9663 C   0  0  0  0  0  0  0  0  0  0  0  0
  -15.5643   12.3073  -26.2050 C   0  0  0  0  0  0  0  0  0  0  0  0
  -14.5784   11.5574  -26.9042 N   0  0  0  0  0  0  0  0  0  0  0  0
  -13.5934   12.2905  -27.6729 C   0  0  0  0  0  0  0  0  0  0  0  0
  -12.7069   11.7916  -28.5195 N   0  0  0  0  0  0  0  0  0  0  0  0
  -11.8847   12.5747  -29.1429 C   0  0  0  0  0  0  0  0  0  0  0  0
  -10.9107   12.2071  -30.0363 N   0  0  0  0  0  0  0  0  0  0  0  0
  -10.1246   13.0991  -30.6015 C   0  0  0  0  0  0  0  0  0  0  0  0
  -10.1695   14.4360  -30.3887 N   0  0  0  0  0  0  0  0  0  0  0  0
  -11.1126   14.8380  -29.5190 C   0  0  0  0  0  0  0  0  0  0  0  0
  -11.3455   16.1900  -29.1426 N   0  0  0  0  0  0  0  0  0  0  0  0
  -10.6464   17.1920  -29.8430 C   0  0  0  0  0  0  0  0  0  0  0  0
  -10.0240   18.2107  -29.1904 C   0  0  0  0  0  0  0  0  0  0  0  0
   -9.3257   19.1656  -29.9181 C   0  0  0  0  0  0  0  0  0  0  0  0
   -9.2063   19.1652  -31.2938 C   0  0  0  0  0  0  0  0  0  0  0  0
   -8.5446   20.0597  -32.0539 O   0  0  0  0  0  0  0  0  0  0  0  0
   -7.3816   20.7302  -31.9153 C   0  0  0  0  0  0  0  0  0  0  0  0
   -6.1079   20.0393  -32.0883 C   0  0  0  0  0  0  0  0  0  0  0  0
   -5.9245   18.9861  -32.9323 C   0  0  0  0  0  0  0  0  0  0  0  0
   -4.6961   18.3451  -33.1102 C   0  0  0  0  0  0  0  0  0  0  0  0
   -3.6065   18.7765  -32.4136 C   0  0  0  0  0  0  0  0  0  0  0  0
   -3.7698   19.8417  -31.5527 C   0  0  0  0  0  0  0  0  0  0  0  0
   -2.6904   20.2801  -30.8540 F   0  0  0  0  0  0  0  0  0  0  0  0
   -4.9811   20.4659  -31.3843 C   0  0  0  0  0  0  0  0  0  0  0  0
   -9.8732   18.0829  -31.9329 C   0  0  0  0  0  0  0  0  0  0  0  0
   -9.7563   18.0305  -33.6746 Cl  0  0  0  0  0  0  0  0  0  0  0  0
  -10.5596   17.1471  -31.2077 C   0  0  0  0  0  0  0  0  0  0  0  0
  -11.9708   13.9186  -28.8933 C   0  0  0  0  0  0  0  0  0  0  0  0
  -13.2508   13.9686  -27.7581 S   0  0  0  0  0  0  0  0  0  0  0  0
  -16.7215   11.6916  -25.7418 C   0  0  0  0  0  0  0  0  0  0  0  0
  -17.7228   12.3691  -25.0817 C   0  0  0  0  0  0  0  0  0  0  0  0
  -18.8714   12.9531  -22.3148 C   0  0  0  0  0  0  0  0  0  0  0  0
  -18.6433   12.8239  -20.8203 C   0  0  0  0  0  0  0  0  0  0  0  0
  1  2  1  0
  2  3  1  0
  3  4  1  0
  4  5  1  0
  5  6  1  0
  6  7  1  0
  7  8  2  0
  8  9  1  0
  9 10  2  0
 10 11  1  0
 11 12  1  0
 12 13  2  0
 13 14  1  0
 14 15  2  0
 15 16  1  0
 16 17  2  0
 17 18  1  0
 18 19  1  0
 19 20  1  0
 20 21  2  0
 21 22  1  0
 22 23  2  0
 23 24  1  0
 24 25  1  0
 25 26  1  0
 26 27  2  0
 27 28  1  0
 28 29  2  0
 29 30  1  0
 30 31  1  0
 30 32  2  0
 23 33  1  0
 33 34  1  0
 33 35  2  0
 18 36  2  0
 36 37  1  0
 10 38  1  0
 38 39  2  0
  5 40  1  0
 40 41  1  0
 41  2  1  0
 39  7  1  0
 37 12  1  0
 36 14  1  0
 35 20  1  0
 32 26  1  0
M  CHG  1   5   1
M  END
$$$$
CHEMBL503418_diffdock_2
     RDKit          3D

 41 46  0  0  0  0  0  0  0  0999 V2000
  -18.8419   14.9584  -19.4876 C   0  0  0  0  0  0  0  0  0  0  0  0
  -18.6572   13.6326  -20.0420 N   0  0  0  0  0  0  0  0  0  0  0  0
  -17.4370   13.5052  -20.7975 C   0  0  0  0  0  0  0  0  0  0  0  0
  -17.5978   14.0058  -22.2217 C   0  0  0  0  0  0  0  0  0  0  0  0
  -18.7720   13.4631  -22.8452 N   0  0  0  0  0  4  0  0  0  0  0  0
  -18.9251   14.0088  -24.1773 C   0  0  0  0  0  0  0  0  0  0  0  0
  -17.7962   13.4747  -25.0117 C   0  0  0  0  0  0  0  0  0  0  0  0
  -16.8128   14.2488  -25.5470 C   0  0  0  0  0  0  0  0  0  0  0  0
  -15.8173   13.6773  -26.3461 C   0  0  0  0  0  0  0  0  0  0  0  0
  -15.8027   12.3283  -26.6118 C   0  0  0  0  0  0  0  0  0  0  0  0
  -14.8289   11.7034  -27.4392 N   0  0  0  0  0  0  0  0  0  0  0  0
  -13.7750   12.5341  -27.9850 C   0  0  0  0  0  0  0  0  0  0  0  0
  -12.7042   12.1324  -28.6509 N   0  0  0  0  0  0  0  0  0  0  0  0
  -11.8417   12.9957  -29.0852 C   0  0  0  0  0  0  0  0  0  0  0  0
  -10.6867   12.7329  -29.7771 N   0  0  0  0  0  0  0  0  0  0  0  0
   -9.8794   13.7000  -30.1594 C   0  0  0  0  0  0  0  0  0  0  0  0
  -10.0712   15.0217  -29.9332 N   0  0  0  0  0  0  0  0  0  0  0  0
  -11.1941   15.3218  -29.2577 C   0  0  0  0  0  0  0  0  0  0  0  0
  -11.6027   16.6389  -28.9077 N   0  0  0  0  0  0  0  0  0  0  0  0
  -10.8349   17.7124  -29.3989 C   0  0  0  0  0  0  0  0  0  0  0  0
  -10.5854   18.8125  -28.6382 C   0  0  0  0  0  0  0  0  0  0  0  0
   -9.8039   19.8388  -29.1527 C   0  0  0  0  0  0  0  0  0  0  0  0
   -9.2400   19.8336  -30.4133 C   0  0  0  0  0  0  0  0  0  0  0  0
   -8.4750   20.7949  -30.9669 O   0  0  0  0  0  0  0  0  0  0  0  0
   -7.6323   21.7250  -30.4708 C   0  0  0  0  0  0  0  0  0  0  0  0
   -7.4366   22.9901  -31.1712 C   0  0  0  0  0  0  0  0  0  0  0  0
   -6.5637   23.9542  -30.7668 C   0  0  0  0  0  0  0  0  0  0  0  0
   -6.3646   25.1527  -31.4561 C   0  0  0  0  0  0  0  0  0  0  0  0
   -7.0693   25.3960  -32.5975 C   0  0  0  0  0  0  0  0  0  0  0  0
   -7.9595   24.4331  -33.0251 C   0  0  0  0  0  0  0  0  0  0  0  0
   -8.6666   24.6650  -34.1616 F   0  0  0  0  0  0  0  0  0  0  0  0
   -8.1486   23.2576  -32.3412 C   0  0  0  0  0  0  0  0  0  0  0  0
   -9.5282   18.6650  -31.1721 C   0  0  0  0  0  0  0  0  0  0  0  0
   -8.8402   18.6026  -32.7761 Cl  0  0  0  0  0  0  0  0  0  0  0  0
  -10.2999   17.6590  -30.6570 C   0  0  0  0  0  0  0  0  0  0  0  0
  -12.0814   14.3199  -28.8309 C   0  0  0  0  0  0  0  0  0  0  0  0
  -13.5573   14.2350  -27.9682 S   0  0  0  0  0  0  0  0  0  0  0  0
  -16.8265   11.5813  -26.0402 C   0  0  0  0  0  0  0  0  0  0  0  0
  -17.8121   12.1331  -25.2521 C   0  0  0  0  0  0  0  0  0  0  0  0
  -19.9740   13.7006  -22.0964 C   0  0  0  0  0  0  0  0  0  0  0  0
  -19.8254   13.1380  -20.6951 C   0  0  0  0  0  0  0  0  0  0  0  0
  1  2  1  0
  2  3  1  0
  3  4  1  0
  4  5  1  0
  5  6  1  0
  6  7  1  0
  7  8  2  0
  8  9  1  0
  9 10  2  0
 10 11  1  0
 11 12  1  0
 12 13  2  0
 13 14  1  0
 14 15  2  0
 15 16  1  0
 16 17  2  0
 17 18  1  0
 18 19  1  0
 19 20  1  0
 20 21  2  0
 21 22  1  0
 22 23  2  0
 23 24  1  0
 24 25  1  0
 25 26  1  0
 26 27  2  0
 27 28  1  0
 28 29  2  0
 29 30  1  0
 30 31  1  0
 30 32  2  0
 23 33  1  0
 33 34  1  0
 33 35  2  0
 18 36  2  0
 36 37  1  0
 10 38  1  0
 38 39  2  0
  5 40  1  0
 40 41  1  0
 41  2  1  0
 39  7  1  0
 37 12  1  0
 36 14  1  0
 35 20  1  0
 32 26  1  0
M  CHG  1   5   1
M  END
$$$$
CHEMBL503418_diffdock_3
     RDKit          3D

 41 46  0  0  0  0  0  0  0  0999 V2000
  -15.5623   17.9709  -25.7328 C   0  0  0  0  0  0  0  0  0  0  0  0
  -16.8266   18.2659  -25.0896 N   0  0  0  0  0  0  0  0  0  0  0  0
  -16.7995   18.0376  -23.6673 C   0  0  0  0  0  0  0  0  0  0  0  0
  -17.0408   16.5788  -23.3230 C   0  0  0  0  0  0  0  0  0  0  0  0
  -18.1852   16.0534  -24.0130 N   0  0  0  0  0  4  0  0  0  0  0  0
  -18.3476   14.6475  -23.7082 C   0  0  0  0  0  0  0  0  0  0  0  0
  -17.1853   13.9200  -24.3208 C   0  0  0  0  0  0  0  0  0  0  0  0
  -15.8836   14.2730  -24.1368 C   0  0  0  0  0  0  0  0  0  0  0  0
  -14.8604   13.5651  -24.7756 C   0  0  0  0  0  0  0  0  0  0  0  0
  -15.1369   12.5006  -25.6008 C   0  0  0  0  0  0  0  0  0  0  0  0
  -14.1353   11.7659  -26.2938 N   0  0  0  0  0  0  0  0  0  0  0  0
  -13.1654   12.5134  -27.0680 C   0  0  0  0  0  0  0  0  0  0  0  0
  -12.2397   12.0237  -27.8771 N   0  0  0  0  0  0  0  0  0  0  0  0
  -11.4378   12.8192  -28.5113 C   0  0  0  0  0  0  0  0  0  0  0  0
  -10.4293   12.4628  -29.3701 N   0  0  0  0  0  0  0  0  0  0  0  0
   -9.6694   13.3674  -29.9509 C   0  0  0  0  0  0  0  0  0  0  0  0
   -9.7761   14.7078  -29.7880 N   0  0  0  0  0  0  0  0  0  0  0  0
  -10.7548   15.0991  -28.9534 C   0  0  0  0  0  0  0  0  0  0  0  0
  -11.0536   16.4522  -28.6315 N   0  0  0  0  0  0  0  0  0  0  0  0
  -10.3272   17.4574  -29.2988 C   0  0  0  0  0  0  0  0  0  0  0  0
   -9.8215   18.5292  -28.6306 C   0  0  0  0  0  0  0  0  0  0  0  0
   -9.0909   19.4863  -29.3229 C   0  0  0  0  0  0  0  0  0  0  0  0
   -8.8260   19.4369  -30.6773 C   0  0  0  0  0  0  0  0  0  0  0  0
   -8.1258   20.3307  -31.4030 O   0  0  0  0  0  0  0  0  0  0  0  0
   -7.0532   21.1098  -31.1503 C   0  0  0  0  0  0  0  0  0  0  0  0
   -6.8248   22.3234  -31.9278 C   0  0  0  0  0  0  0  0  0  0  0  0
   -6.3038   22.3316  -33.1862 C   0  0  0  0  0  0  0  0  0  0  0  0
   -6.1104   23.4958  -33.9334 C   0  0  0  0  0  0  0  0  0  0  0  0
   -6.4524   24.7020  -33.3979 C   0  0  0  0  0  0  0  0  0  0  0  0
   -6.9814   24.7171  -32.1242 C   0  0  0  0  0  0  0  0  0  0  0  0
   -7.3261   25.9136  -31.5810 F   0  0  0  0  0  0  0  0  0  0  0  0
   -7.1683   23.5674  -31.3970 C   0  0  0  0  0  0  0  0  0  0  0  0
   -9.3746   18.3001  -31.3339 C   0  0  0  0  0  0  0  0  0  0  0  0
   -9.0710   18.1842  -33.0499 Cl  0  0  0  0  0  0  0  0  0  0  0  0
  -10.0938   17.3625  -30.6436 C   0  0  0  0  0  0  0  0  0  0  0  0
  -11.5868   14.1661  -28.3127 C   0  0  0  0  0  0  0  0  0  0  0  0
  -12.8930   14.2007  -27.2071 S   0  0  0  0  0  0  0  0  0  0  0  0
  -16.4807   12.1784  -25.7539 C   0  0  0  0  0  0  0  0  0  0  0  0
  -17.4966   12.8684  -25.1304 C   0  0  0  0  0  0  0  0  0  0  0  0
  -18.1171   16.2231  -25.4373 C   0  0  0  0  0  0  0  0  0  0  0  0
  -17.9415   17.6928  -25.7713 C   0  0  0  0  0  0  0  0  0  0  0  0
  1  2  1  0
  2  3  1  0
  3  4  1  0
  4  5  1  0
  5  6  1  0
  6  7  1  0
  7  8  2  0
  8  9  1  0
  9 10  2  0
 10 11  1  0
 11 12  1  0
 12 13  2  0
 13 14  1  0
 14 15  2  0
 15 16  1  0
 16 17  2  0
 17 18  1  0
 18 19  1  0
 19 20  1  0
 20 21  2  0
 21 22  1  0
 22 23  2  0
 23 24  1  0
 24 25  1  0
 25 26  1  0
 26 27  2  0
 27 28  1  0
 28 29  2  0
 29 30  1  0
 30 31  1  0
 30 32  2  0
 23 33  1  0
 33 34  1  0
 33 35  2  0
 18 36  2  0
 36 37  1  0
 10 38  1  0
 38 39  2  0
  5 40  1  0
 40 41  1  0
 41  2  1  0
 39  7  1  0
 37 12  1  0
 36 14  1  0
 35 20  1  0
 32 26  1  0
M  CHG  1   5   1
M  END
$$$$
CHEMBL503418_diffdock_4
     RDKit          3D

 41 46  0  0  0  0  0  0  0  0999 V2000
  -21.7894   15.2612  -22.2225 C   0  0  0  0  0  0  0  0  0  0  0  0
  -20.9863   15.6707  -23.3567 N   0  0  0  0  0  0  0  0  0  0  0  0
  -20.5725   14.5634  -24.1805 C   0  0  0  0  0  0  0  0  0  0  0  0
  -19.3313   13.8823  -23.6322 C   0  0  0  0  0  0  0  0  0  0  0  0
  -18.3039   14.8322  -23.3095 N   0  0  0  0  0  4  0  0  0  0  0  0
  -17.1620   14.1535  -22.7341 C   0  0  0  0  0  0  0  0  0  0  0  0
  -16.5166   13.3560  -23.8310 C   0  0  0  0  0  0  0  0  0  0  0  0
  -16.7683   12.0386  -24.0636 C   0  0  0  0  0  0  0  0  0  0  0  0
  -16.0949   11.3579  -25.0832 C   0  0  0  0  0  0  0  0  0  0  0  0
  -15.1671   11.9941  -25.8737 C   0  0  0  0  0  0  0  0  0  0  0  0
  -14.4366   11.3406  -26.9046 N   0  0  0  0  0  0  0  0  0  0  0  0
  -13.4412   12.1133  -27.6192 C   0  0  0  0  0  0  0  0  0  0  0  0
  -12.4480   11.6480  -28.3597 N   0  0  0  0  0  0  0  0  0  0  0  0
  -11.6311   12.4643  -28.9465 C   0  0  0  0  0  0  0  0  0  0  0  0
  -10.5561   12.1344  -29.7322 N   0  0  0  0  0  0  0  0  0  0  0  0
   -9.7882   13.0588  -30.2696 C   0  0  0  0  0  0  0  0  0  0  0  0
   -9.9484   14.3963  -30.1273 N   0  0  0  0  0  0  0  0  0  0  0  0
  -10.9930   14.7618  -29.3640 C   0  0  0  0  0  0  0  0  0  0  0  0
  -11.3559   16.1069  -29.0760 N   0  0  0  0  0  0  0  0  0  0  0  0
  -10.6987   17.1272  -29.7905 C   0  0  0  0  0  0  0  0  0  0  0  0
  -10.1280   18.1850  -29.1528 C   0  0  0  0  0  0  0  0  0  0  0  0
   -9.4693   19.1577  -29.8936 C   0  0  0  0  0  0  0  0  0  0  0  0
   -9.3409   19.1381  -31.2684 C   0  0  0  0  0  0  0  0  0  0  0  0
   -8.7157   20.0483  -32.0408 O   0  0  0  0  0  0  0  0  0  0  0  0
   -7.8146   21.0234  -31.7989 C   0  0  0  0  0  0  0  0  0  0  0  0
   -6.3985   20.6998  -31.6599 C   0  0  0  0  0  0  0  0  0  0  0  0
   -5.5038   21.4801  -30.9922 C   0  0  0  0  0  0  0  0  0  0  0  0
   -4.1543   21.1514  -30.8430 C   0  0  0  0  0  0  0  0  0  0  0  0
   -3.6812   19.9936  -31.3855 C   0  0  0  0  0  0  0  0  0  0  0  0
   -4.5701   19.1884  -32.0666 C   0  0  0  0  0  0  0  0  0  0  0  0
   -4.1094   18.0321  -32.6107 F   0  0  0  0  0  0  0  0  0  0  0  0
   -5.8952   19.5194  -32.2080 C   0  0  0  0  0  0  0  0  0  0  0  0
   -9.9532   18.0151  -31.8916 C   0  0  0  0  0  0  0  0  0  0  0  0
   -9.8223   17.9369  -33.6314 Cl  0  0  0  0  0  0  0  0  0  0  0  0
  -10.6008   17.0619  -31.1536 C   0  0  0  0  0  0  0  0  0  0  0  0
  -11.8360   13.8071  -28.7714 C   0  0  0  0  0  0  0  0  0  0  0  0
  -13.2141   13.8075  -27.7562 S   0  0  0  0  0  0  0  0  0  0  0  0
  -14.9478   13.3390  -25.5979 C   0  0  0  0  0  0  0  0  0  0  0  0
  -15.6047   14.0195  -24.5966 C   0  0  0  0  0  0  0  0  0  0  0  0
  -18.7442   15.8615  -22.4102 C   0  0  0  0  0  0  0  0  0  0  0  0
  -19.9450   16.5783  -22.9988 C   0  0  0  0  0  0  0  0  0  0  0  0
  1  2  1  0
  2  3  1  0
  3  4  1  0
  4  5  1  0
  5  6  1  0
  6  7  1  0
  7  8  2  0
  8  9  1  0
  9 10  2  0
 10 11  1  0
 11 12  1  0
 12 13  2  0
 13 14  1  0
 14 15  2  0
 15 16  1  0
 16 17  2  0
 17 18  1  0
 18 19  1  0
 19 20  1  0
 20 21  2  0
 21 22  1  0
 22 23  2  0
 23 24  1  0
 24 25  1  0
 25 26  1  0
 26 27  2  0
 27 28  1  0
 28 29  2  0
 29 30  1  0
 30 31  1  0
 30 32  2  0
 23 33  1  0
 33 34  1  0
 33 35  2  0
 18 36  2  0
 36 37  1  0
 10 38  1  0
 38 39  2  0
  5 40  1  0
 40 41  1  0
 41  2  1  0
 39  7  1  0
 37 12  1  0
 36 14  1  0
 35 20  1  0
 32 26  1  0
M  CHG  1   5   1
M  END
$$$$
CHEMBL503418_diffdock_5
     RDKit          3D

 41 46  0  0  0  0  0  0  0  0999 V2000
  -19.0749   10.9360  -18.8628 C   0  0  0  0  0  0  0  0  0  0  0  0
  -19.1989   10.0314  -19.9877 N   0  0  0  0  0  0  0  0  0  0  0  0
  -17.9759    9.8971  -20.7375 C   0  0  0  0  0  0  0  0  0  0  0  0
  -17.8029   11.0197  -21.7448 C   0  0  0  0  0  0  0  0  0  0  0  0
  -18.9906   11.2179  -22.5272 N   0  0  0  0  0  4  0  0  0  0  0  0
  -18.8096   12.3331  -23.4323 C   0  0  0  0  0  0  0  0  0  0  0  0
  -17.8314   11.8995  -24.4861 C   0  0  0  0  0  0  0  0  0  0  0  0
  -17.4919   10.6027  -24.7224 C   0  0  0  0  0  0  0  0  0  0  0  0
  -16.5416   10.2856  -25.6984 C   0  0  0  0  0  0  0  0  0  0  0  0
  -15.9279   11.2661  -26.4418 C   0  0  0  0  0  0  0  0  0  0  0  0
  -14.9368   10.9979  -27.4262 N   0  0  0  0  0  0  0  0  0  0  0  0
  -14.0889   12.0952  -27.8455 C   0  0  0  0  0  0  0  0  0  0  0  0
  -13.0707   12.0416  -28.6891 N   0  0  0  0  0  0  0  0  0  0  0  0
  -12.4004   13.1126  -28.9746 C   0  0  0  0  0  0  0  0  0  0  0  0
  -11.3221   13.2122  -29.8167 N   0  0  0  0  0  0  0  0  0  0  0  0
  -10.7135   14.3616  -30.0210 C   0  0  0  0  0  0  0  0  0  0  0  0
  -11.0538   15.5444  -29.4556 N   0  0  0  0  0  0  0  0  0  0  0  0
  -12.1080   15.4898  -28.6231 C   0  0  0  0  0  0  0  0  0  0  0  0
  -12.6441   16.6037  -27.9190 N   0  0  0  0  0  0  0  0  0  0  0  0
  -11.9841   17.8403  -28.0545 C   0  0  0  0  0  0  0  0  0  0  0  0
  -12.4011   18.9447  -27.3780 C   0  0  0  0  0  0  0  0  0  0  0  0
  -11.7077   20.1394  -27.5223 C   0  0  0  0  0  0  0  0  0  0  0  0
  -10.5930   20.3033  -28.3208 C   0  0  0  0  0  0  0  0  0  0  0  0
   -9.8795   21.4321  -28.5010 O   0  0  0  0  0  0  0  0  0  0  0  0
   -9.6646   22.5353  -27.7540 C   0  0  0  0  0  0  0  0  0  0  0  0
  -10.7477   23.1129  -26.9647 C   0  0  0  0  0  0  0  0  0  0  0  0
  -10.8383   23.0085  -25.6097 C   0  0  0  0  0  0  0  0  0  0  0  0
  -11.8656   23.5846  -24.8587 C   0  0  0  0  0  0  0  0  0  0  0  0
  -12.8430   24.2942  -25.4911 C   0  0  0  0  0  0  0  0  0  0  0  0
  -12.7711   24.4122  -26.8634 C   0  0  0  0  0  0  0  0  0  0  0  0
  -13.7396   25.1175  -27.5036 F   0  0  0  0  0  0  0  0  0  0  0  0
  -11.7573   23.8426  -27.5935 C   0  0  0  0  0  0  0  0  0  0  0  0
  -10.1946   19.1233  -29.0088 C   0  0  0  0  0  0  0  0  0  0  0  0
   -8.7889   19.2708  -30.0347 Cl  0  0  0  0  0  0  0  0  0  0  0  0
  -10.8845   17.9507  -28.8611 C   0  0  0  0  0  0  0  0  0  0  0  0
  -12.7845   14.2835  -28.3769 C   0  0  0  0  0  0  0  0  0  0  0  0
  -14.1073   13.7579  -27.4264 S   0  0  0  0  0  0  0  0  0  0  0  0
  -16.3107   12.5736  -26.1644 C   0  0  0  0  0  0  0  0  0  0  0  0
  -17.2449   12.8978  -25.2056 C   0  0  0  0  0  0  0  0  0  0  0  0
  -20.1645   11.4412  -21.7310 C   0  0  0  0  0  0  0  0  0  0  0  0
  -20.3636   10.2813  -20.7733 C   0  0  0  0  0  0  0  0  0  0  0  0
  1  2  1  0
  2  3  1  0
  3  4  1  0
  4  5  1  0
  5  6  1  0
  6  7  1  0
  7  8  2  0
  8  9  1  0
  9 10  2  0
 10 11  1  0
 11 12  1  0
 12 13  2  0
 13 14  1  0
 14 15  2  0
 15 16  1  0
 16 17  2  0
 17 18  1  0
 18 19  1  0
 19 20  1  0
 20 21  2  0
 21 22  1  0
 22 23  2  0
 23 24  1  0
 24 25  1  0
 25 26  1  0
 26 27  2  0
 27 28  1  0
 28 29  2  0
 29 30  1  0
 30 31  1  0
 30 32  2  0
 23 33  1  0
 33 34  1  0
 33 35  2  0
 18 36  2  0
 36 37  1  0
 10 38  1  0
 38 39  2  0
  5 40  1  0
 40 41  1  0
 41  2  1  0
 39  7  1  0
 37 12  1  0
 36 14  1  0
 35 20  1  0
 32 26  1  0
M  CHG  1   5   1
M  END
$$$$
CHEMBL503418_diffdock_6
     RDKit          3D

 41 46  0  0  0  0  0  0  0  0999 V2000
  -20.9173   17.2600  -22.0123 C   0  0  0  0  0  0  0  0  0  0  0  0
  -20.8457   15.8677  -22.4068 N   0  0  0  0  0  0  0  0  0  0  0  0
  -20.4402   14.9996  -21.3307 C   0  0  0  0  0  0  0  0  0  0  0  0
  -18.9309   14.9629  -21.1708 C   0  0  0  0  0  0  0  0  0  0  0  0
  -18.2697   14.7434  -22.4265 N   0  0  0  0  0  4  0  0  0  0  0  0
  -16.8339   14.7753  -22.2449 C   0  0  0  0  0  0  0  0  0  0  0  0
  -16.2228   13.9997  -23.3765 C   0  0  0  0  0  0  0  0  0  0  0  0
  -16.2908   12.6454  -23.4954 C   0  0  0  0  0  0  0  0  0  0  0  0
  -15.6605   11.9952  -24.5614 C   0  0  0  0  0  0  0  0  0  0  0  0
  -14.9600   12.6989  -25.5124 C   0  0  0  0  0  0  0  0  0  0  0  0
  -14.2796   12.0831  -26.5993 N   0  0  0  0  0  0  0  0  0  0  0  0
  -13.3269   12.8851  -27.3395 C   0  0  0  0  0  0  0  0  0  0  0  0
  -12.4009   12.4531  -28.1805 N   0  0  0  0  0  0  0  0  0  0  0  0
  -11.6157   13.2929  -28.7771 C   0  0  0  0  0  0  0  0  0  0  0  0
  -10.6091   12.9978  -29.6611 N   0  0  0  0  0  0  0  0  0  0  0  0
   -9.8671   13.9433  -30.1983 C   0  0  0  0  0  0  0  0  0  0  0  0
   -9.9917   15.2714  -29.9631 N   0  0  0  0  0  0  0  0  0  0  0  0
  -10.9690   15.6030  -29.1017 C   0  0  0  0  0  0  0  0  0  0  0  0
  -11.2846   16.9325  -28.7057 N   0  0  0  0  0  0  0  0  0  0  0  0
  -10.6558   17.9859  -29.3972 C   0  0  0  0  0  0  0  0  0  0  0  0
  -10.2571   19.1174  -28.7553 C   0  0  0  0  0  0  0  0  0  0  0  0
   -9.6194   20.1227  -29.4706 C   0  0  0  0  0  0  0  0  0  0  0  0
   -9.3470   20.0657  -30.8232 C   0  0  0  0  0  0  0  0  0  0  0  0
   -8.7333   21.0044  -31.5703 O   0  0  0  0  0  0  0  0  0  0  0  0
   -7.8413   21.9810  -31.3026 C   0  0  0  0  0  0  0  0  0  0  0  0
   -6.4217   21.7759  -31.5712 C   0  0  0  0  0  0  0  0  0  0  0  0
   -5.9361   21.2643  -32.7364 C   0  0  0  0  0  0  0  0  0  0  0  0
   -4.5741   21.0933  -32.9953 C   0  0  0  0  0  0  0  0  0  0  0  0
   -3.6607   21.4488  -32.0478 C   0  0  0  0  0  0  0  0  0  0  0  0
   -4.1305   21.9686  -30.8598 C   0  0  0  0  0  0  0  0  0  0  0  0
   -3.2289   22.3267  -29.9088 F   0  0  0  0  0  0  0  0  0  0  0  0
   -5.4714   22.1335  -30.6140 C   0  0  0  0  0  0  0  0  0  0  0  0
   -9.7822   18.8658  -31.4518 C   0  0  0  0  0  0  0  0  0  0  0  0
   -9.4638   18.7375  -33.1642 Cl  0  0  0  0  0  0  0  0  0  0  0  0
  -10.4104   17.8809  -30.7391 C   0  0  0  0  0  0  0  0  0  0  0  0
  -11.7824   14.6250  -28.5057 C   0  0  0  0  0  0  0  0  0  0  0  0
  -13.0799   14.5813  -27.3902 S   0  0  0  0  0  0  0  0  0  0  0  0
  -14.9222   14.0789  -25.3478 C   0  0  0  0  0  0  0  0  0  0  0  0
  -15.5387   14.7300  -24.3022 C   0  0  0  0  0  0  0  0  0  0  0  0
  -18.6393   15.6945  -23.4369 C   0  0  0  0  0  0  0  0  0  0  0  0
  -20.1437   15.6754  -23.6340 C   0  0  0  0  0  0  0  0  0  0  0  0
  1  2  1  0
  2  3  1  0
  3  4  1  0
  4  5  1  0
  5  6  1  0
  6  7  1  0
  7  8  2  0
  8  9  1  0
  9 10  2  0
 10 11  1  0
 11 12  1  0
 12 13  2  0
 13 14  1  0
 14 15  2  0
 15 16  1  0
 16 17  2  0
 17 18  1  0
 18 19  1  0
 19 20  1  0
 20 21  2  0
 21 22  1  0
 22 23  2  0
 23 24  1  0
 24 25  1  0
 25 26  1  0
 26 27  2  0
 27 28  1  0
 28 29  2  0
 29 30  1  0
 30 31  1  0
 30 32  2  0
 23 33  1  0
 33 34  1  0
 33 35  2  0
 18 36  2  0
 36 37  1  0
 10 38  1  0
 38 39  2  0
  5 40  1  0
 40 41  1  0
 41  2  1  0
 39  7  1  0
 37 12  1  0
 36 14  1  0
 35 20  1  0
 32 26  1  0
M  CHG  1   5   1
M  END
$$$$
CHEMBL503418_diffdock_7
     RDKit          3D

 41 46  0  0  0  0  0  0  0  0999 V2000
  -21.5551   11.8567  -21.2656 C   0  0  0  0  0  0  0  0  0  0  0  0
  -21.5347   12.1926  -22.6748 N   0  0  0  0  0  0  0  0  0  0  0  0
  -20.6011   11.3949  -23.4286 C   0  0  0  0  0  0  0  0  0  0  0  0
  -19.1889   11.9458  -23.3451 C   0  0  0  0  0  0  0  0  0  0  0  0
  -19.1535   13.3567  -23.6102 N   0  0  0  0  0  4  0  0  0  0  0  0
  -17.8031   13.8569  -23.4621 C   0  0  0  0  0  0  0  0  0  0  0  0
  -16.9502   13.1481  -24.4749 C   0  0  0  0  0  0  0  0  0  0  0  0
  -16.9242   11.7968  -24.6362 C   0  0  0  0  0  0  0  0  0  0  0  0
  -16.0713   11.2120  -25.5780 C   0  0  0  0  0  0  0  0  0  0  0  0
  -15.2416   11.9784  -26.3620 C   0  0  0  0  0  0  0  0  0  0  0  0
  -14.3375   11.4310  -27.3140 N   0  0  0  0  0  0  0  0  0  0  0  0
  -13.3939   12.3323  -27.9433 C   0  0  0  0  0  0  0  0  0  0  0  0
  -12.2915   12.0057  -28.5986 N   0  0  0  0  0  0  0  0  0  0  0  0
  -11.5404   12.9259  -29.1152 C   0  0  0  0  0  0  0  0  0  0  0  0
  -10.3709   12.7446  -29.8089 N   0  0  0  0  0  0  0  0  0  0  0  0
   -9.6862   13.7654  -30.2804 C   0  0  0  0  0  0  0  0  0  0  0  0
  -10.0278   15.0698  -30.1517 N   0  0  0  0  0  0  0  0  0  0  0  0
  -11.1700   15.2905  -29.4780 C   0  0  0  0  0  0  0  0  0  0  0  0
  -11.7250   16.5751  -29.2211 N   0  0  0  0  0  0  0  0  0  0  0  0
  -11.0703   17.6915  -29.7763 C   0  0  0  0  0  0  0  0  0  0  0  0
  -10.6052   18.7026  -28.9936 C   0  0  0  0  0  0  0  0  0  0  0  0
   -9.9445   19.7746  -29.5795 C   0  0  0  0  0  0  0  0  0  0  0  0
   -9.7124   19.9019  -30.9348 C   0  0  0  0  0  0  0  0  0  0  0  0
   -9.0794   20.9135  -31.5608 O   0  0  0  0  0  0  0  0  0  0  0  0
   -8.1321   21.8001  -31.1897 C   0  0  0  0  0  0  0  0  0  0  0  0
   -6.7911   21.3423  -30.8407 C   0  0  0  0  0  0  0  0  0  0  0  0
   -5.9548   22.0135  -30.0009 C   0  0  0  0  0  0  0  0  0  0  0  0
   -4.6814   21.5566  -29.6530 C   0  0  0  0  0  0  0  0  0  0  0  0
   -4.2266   20.3791  -30.1679 C   0  0  0  0  0  0  0  0  0  0  0  0
   -5.0571   19.6830  -31.0212 C   0  0  0  0  0  0  0  0  0  0  0  0
   -4.6141   18.5081  -31.5396 F   0  0  0  0  0  0  0  0  0  0  0  0
   -6.3076   20.1397  -31.3575 C   0  0  0  0  0  0  0  0  0  0  0  0
  -10.2165   18.8227  -31.7129 C   0  0  0  0  0  0  0  0  0  0  0  0
   -9.9515   18.9294  -33.4358 Cl  0  0  0  0  0  0  0  0  0  0  0  0
  -10.8670   17.7709  -31.1269 C   0  0  0  0  0  0  0  0  0  0  0  0
  -11.9296   14.2296  -28.9577 C   0  0  0  0  0  0  0  0  0  0  0  0
  -13.3754   14.0430  -28.0607 S   0  0  0  0  0  0  0  0  0  0  0  0
  -15.3073   13.3525  -26.1609 C   0  0  0  0  0  0  0  0  0  0  0  0
  -16.1428   13.9395  -25.2365 C   0  0  0  0  0  0  0  0  0  0  0  0
  -20.0335   14.1154  -22.7665 C   0  0  0  0  0  0  0  0  0  0  0  0
  -21.4529   13.5980  -22.9078 C   0  0  0  0  0  0  0  0  0  0  0  0
  1  2  1  0
  2  3  1  0
  3  4  1  0
  4  5  1  0
  5  6  1  0
  6  7  1  0
  7  8  2  0
  8  9  1  0
  9 10  2  0
 10 11  1  0
 11 12  1  0
 12 13  2  0
 13 14  1  0
 14 15  2  0
 15 16  1  0
 16 17  2  0
 17 18  1  0
 18 19  1  0
 19 20  1  0
 20 21  2  0
 21 22  1  0
 22 23  2  0
 23 24  1  0
 24 25  1  0
 25 26  1  0
 26 27  2  0
 27 28  1  0
 28 29  2  0
 29 30  1  0
 30 31  1  0
 30 32  2  0
 23 33  1  0
 33 34  1  0
 33 35  2  0
 18 36  2  0
 36 37  1  0
 10 38  1  0
 38 39  2  0
  5 40  1  0
 40 41  1  0
 41  2  1  0
 39  7  1  0
 37 12  1  0
 36 14  1  0
 35 20  1  0
 32 26  1  0
M  CHG  1   5   1
M  END
$$$$
CHEMBL503418_diffdock_8
     RDKit          3D

 41 46  0  0  0  0  0  0  0  0999 V2000
  -20.4384   13.9611  -20.0385 C   0  0  0  0  0  0  0  0  0  0  0  0
  -19.0197   14.2533  -20.0723 N   0  0  0  0  0  0  0  0  0  0  0  0
  -18.7376   15.6299  -20.3908 C   0  0  0  0  0  0  0  0  0  0  0  0
  -18.7571   15.8803  -21.8880 C   0  0  0  0  0  0  0  0  0  0  0  0
  -17.9758   14.9073  -22.5986 N   0  0  0  0  0  4  0  0  0  0  0  0
  -18.0672   15.1411  -24.0244 C   0  0  0  0  0  0  0  0  0  0  0  0
  -17.1041   14.2031  -24.6939 C   0  0  0  0  0  0  0  0  0  0  0  0
  -17.1457   12.8488  -24.5641 C   0  0  0  0  0  0  0  0  0  0  0  0
  -16.1862   12.0472  -25.1911 C   0  0  0  0  0  0  0  0  0  0  0  0
  -15.1817   12.5989  -25.9507 C   0  0  0  0  0  0  0  0  0  0  0  0
  -14.1675   11.8300  -26.5859 N   0  0  0  0  0  0  0  0  0  0  0  0
  -13.2017   12.5334  -27.4050 C   0  0  0  0  0  0  0  0  0  0  0  0
  -12.3045   12.0005  -28.2188 N   0  0  0  0  0  0  0  0  0  0  0  0
  -11.5025   12.7596  -28.8959 C   0  0  0  0  0  0  0  0  0  0  0  0
  -10.5210   12.3565  -29.7654 N   0  0  0  0  0  0  0  0  0  0  0  0
   -9.7577   13.2273  -30.3916 C   0  0  0  0  0  0  0  0  0  0  0  0
   -9.8350   14.5740  -30.2691 N   0  0  0  0  0  0  0  0  0  0  0  0
  -10.7865   15.0105  -29.4256 C   0  0  0  0  0  0  0  0  0  0  0  0
  -11.0520   16.3788  -29.1403 N   0  0  0  0  0  0  0  0  0  0  0  0
  -10.4654   17.3459  -29.9793 C   0  0  0  0  0  0  0  0  0  0  0  0
   -9.9654   18.5086  -29.4799 C   0  0  0  0  0  0  0  0  0  0  0  0
   -9.3741   19.4255  -30.3394 C   0  0  0  0  0  0  0  0  0  0  0  0
   -9.2470   19.2477  -31.7029 C   0  0  0  0  0  0  0  0  0  0  0  0
   -8.6851   20.0967  -32.5857 O   0  0  0  0  0  0  0  0  0  0  0  0
   -8.0841   21.3002  -32.4777 C   0  0  0  0  0  0  0  0  0  0  0  0
   -6.8464   21.4399  -31.7174 C   0  0  0  0  0  0  0  0  0  0  0  0
   -5.6760   20.8301  -32.0543 C   0  0  0  0  0  0  0  0  0  0  0  0
   -4.4891   20.9880  -31.3347 C   0  0  0  0  0  0  0  0  0  0  0  0
   -4.4740   21.7892  -30.2318 C   0  0  0  0  0  0  0  0  0  0  0  0
   -5.6486   22.4162  -29.8722 C   0  0  0  0  0  0  0  0  0  0  0  0
   -5.6447   23.2173  -28.7751 F   0  0  0  0  0  0  0  0  0  0  0  0
   -6.8107   22.2555  -30.5857 C   0  0  0  0  0  0  0  0  0  0  0  0
   -9.7842   18.0195  -32.1796 C   0  0  0  0  0  0  0  0  0  0  0  0
   -9.6513   17.7395  -33.8983 Cl  0  0  0  0  0  0  0  0  0  0  0  0
  -10.3656   17.1223  -31.3254 C   0  0  0  0  0  0  0  0  0  0  0  0
  -11.6211   14.1147  -28.7370 C   0  0  0  0  0  0  0  0  0  0  0  0
  -12.9005   14.2099  -27.6039 S   0  0  0  0  0  0  0  0  0  0  0  0
  -15.1844   13.9854  -26.0543 C   0  0  0  0  0  0  0  0  0  0  0  0
  -16.1237   14.7848  -25.4412 C   0  0  0  0  0  0  0  0  0  0  0  0
  -18.3613   13.5532  -22.3163 C   0  0  0  0  0  0  0  0  0  0  0  0
  -18.2750   13.2956  -20.8235 C   0  0  0  0  0  0  0  0  0  0  0  0
  1  2  1  0
  2  3  1  0
  3  4  1  0
  4  5  1  0
  5  6  1  0
  6  7  1  0
  7  8  2  0
  8  9  1  0
  9 10  2  0
 10 11  1  0
 11 12  1  0
 12 13  2  0
 13 14  1  0
 14 15  2  0
 15 16  1  0
 16 17  2  0
 17 18  1  0
 18 19  1  0
 19 20  1  0
 20 21  2  0
 21 22  1  0
 22 23  2  0
 23 24  1  0
 24 25  1  0
 25 26  1  0
 26 27  2  0
 27 28  1  0
 28 29  2  0
 29 30  1  0
 30 31  1  0
 30 32  2  0
 23 33  1  0
 33 34  1  0
 33 35  2  0
 18 36  2  0
 36 37  1  0
 10 38  1  0
 38 39  2  0
  5 40  1  0
 40 41  1  0
 41  2  1  0
 39  7  1  0
 37 12  1  0
 36 14  1  0
 35 20  1  0
 32 26  1  0
M  CHG  1   5   1
M  END
$$$$
CHEMBL503418_diffdock_9
     RDKit          3D

 41 46  0  0  0  0  0  0  0  0999 V2000
  -19.3664   14.4175  -20.0088 C   0  0  0  0  0  0  0  0  0  0  0  0
  -18.7676   13.1053  -20.1456 N   0  0  0  0  0  0  0  0  0  0  0  0
  -17.5252   13.1287  -20.8749 C   0  0  0  0  0  0  0  0  0  0  0  0
  -17.7493   13.1096  -22.3763 C   0  0  0  0  0  0  0  0  0  0  0  0
  -18.6745   12.0811  -22.7614 N   0  0  0  0  0  4  0  0  0  0  0  0
  -18.9097   12.1326  -24.1889 C   0  0  0  0  0  0  0  0  0  0  0  0
  -17.5943   11.8801  -24.8682 C   0  0  0  0  0  0  0  0  0  0  0  0
  -16.6339   12.8285  -25.0442 C   0  0  0  0  0  0  0  0  0  0  0  0
  -15.4503   12.5208  -25.7229 C   0  0  0  0  0  0  0  0  0  0  0  0
  -15.2239   11.2620  -26.2276 C   0  0  0  0  0  0  0  0  0  0  0  0
  -14.0500   10.9063  -26.9478 N   0  0  0  0  0  0  0  0  0  0  0  0
  -13.1595   11.9740  -27.3549 C   0  0  0  0  0  0  0  0  0  0  0  0
  -12.1133   11.8793  -28.1598 N   0  0  0  0  0  0  0  0  0  0  0  0
  -11.4057   12.9277  -28.4393 C   0  0  0  0  0  0  0  0  0  0  0  0
  -10.2956   12.9847  -29.2432 N   0  0  0  0  0  0  0  0  0  0  0  0
   -9.6505   14.1143  -29.4450 C   0  0  0  0  0  0  0  0  0  0  0  0
   -9.9801   15.3155  -28.9129 N   0  0  0  0  0  0  0  0  0  0  0  0
  -11.0646   15.3027  -28.1185 C   0  0  0  0  0  0  0  0  0  0  0  0
  -11.5966   16.4424  -27.4536 N   0  0  0  0  0  0  0  0  0  0  0  0
  -10.9165   17.6656  -27.6101 C   0  0  0  0  0  0  0  0  0  0  0  0
  -10.9417   18.6202  -26.6409 C   0  0  0  0  0  0  0  0  0  0  0  0
  -10.2380   19.8033  -26.8257 C   0  0  0  0  0  0  0  0  0  0  0  0
   -9.4898   20.0993  -27.9480 C   0  0  0  0  0  0  0  0  0  0  0  0
   -8.7874   21.2246  -28.1846 O   0  0  0  0  0  0  0  0  0  0  0  0
   -9.0775   22.5413  -28.1261 C   0  0  0  0  0  0  0  0  0  0  0  0
  -10.0853   23.0327  -27.1921 C   0  0  0  0  0  0  0  0  0  0  0  0
   -9.8249   23.3529  -25.8940 C   0  0  0  0  0  0  0  0  0  0  0  0
  -10.7902   23.8454  -25.0126 C   0  0  0  0  0  0  0  0  0  0  0  0
  -12.0693   24.0243  -25.4491 C   0  0  0  0  0  0  0  0  0  0  0  0
  -12.3554   23.7059  -26.7602 C   0  0  0  0  0  0  0  0  0  0  0  0
  -13.6267   23.8807  -27.2058 F   0  0  0  0  0  0  0  0  0  0  0  0
  -11.4000   23.2224  -27.6198 C   0  0  0  0  0  0  0  0  0  0  0  0
   -9.4934   19.0734  -28.9338 C   0  0  0  0  0  0  0  0  0  0  0  0
   -8.5626   19.3925  -30.3767 Cl  0  0  0  0  0  0  0  0  0  0  0  0
  -10.1903   17.9111  -28.7434 C   0  0  0  0  0  0  0  0  0  0  0  0
  -11.7805   14.1186  -27.8762 C   0  0  0  0  0  0  0  0  0  0  0  0
  -13.1498   13.6440  -26.9655 S   0  0  0  0  0  0  0  0  0  0  0  0
  -16.2335   10.3290  -26.0196 C   0  0  0  0  0  0  0  0  0  0  0  0
  -17.4031   10.6206  -25.3532 C   0  0  0  0  0  0  0  0  0  0  0  0
  -19.9317   12.1610  -22.0722 C   0  0  0  0  0  0  0  0  0  0  0  0
  -19.6996   12.1133  -20.5735 C   0  0  0  0  0  0  0  0  0  0  0  0
  1  2  1  0
  2  3  1  0
  3  4  1  0
  4  5  1  0
  5  6  1  0
  6  7  1  0
  7  8  2  0
  8  9  1  0
  9 10  2  0
 10 11  1  0
 11 12  1  0
 12 13  2  0
 13 14  1  0
 14 15  2  0
 15 16  1  0
 16 17  2  0
 17 18  1  0
 18 19  1  0
 19 20  1  0
 20 21  2  0
 21 22  1  0
 22 23  2  0
 23 24  1  0
 24 25  1  0
 25 26  1  0
 26 27  2  0
 27 28  1  0
 28 29  2  0
 29 30  1  0
 30 31  1  0
 30 32  2  0
 23 33  1  0
 33 34  1  0
 33 35  2  0
 18 36  2  0
 36 37  1  0
 10 38  1  0
 38 39  2  0
  5 40  1  0
 40 41  1  0
 41  2  1  0
 39  7  1  0
 37 12  1  0
 36 14  1  0
 35 20  1  0
 32 26  1  0
M  CHG  1   5   1
M  END
$$$$
CHEMBL503418_diffdock_10
     RDKit          3D

 41 46  0  0  0  0  0  0  0  0999 V2000
  -19.1987   19.2788  -23.1656 C   0  0  0  0  0  0  0  0  0  0  0  0
  -19.0421   18.6706  -24.4712 N   0  0  0  0  0  0  0  0  0  0  0  0
  -20.1476   17.8189  -24.8299 C   0  0  0  0  0  0  0  0  0  0  0  0
  -20.0061   16.4279  -24.2385 C   0  0  0  0  0  0  0  0  0  0  0  0
  -18.6999   15.8808  -24.4766 N   0  0  0  0  0  4  0  0  0  0  0  0
  -18.5823   14.5823  -23.8475 C   0  0  0  0  0  0  0  0  0  0  0  0
  -17.5516   13.8052  -24.6153 C   0  0  0  0  0  0  0  0  0  0  0  0
  -17.6832   12.4933  -24.9534 C   0  0  0  0  0  0  0  0  0  0  0  0
  -16.6580   11.8315  -25.6369 C   0  0  0  0  0  0  0  0  0  0  0  0
  -15.4972   12.4812  -25.9846 C   0  0  0  0  0  0  0  0  0  0  0  0
  -14.4152   11.8466  -26.6554 N   0  0  0  0  0  0  0  0  0  0  0  0
  -13.4947   12.6864  -27.3945 C   0  0  0  0  0  0  0  0  0  0  0  0
  -12.5491   12.2920  -28.2321 N   0  0  0  0  0  0  0  0  0  0  0  0
  -11.7980   13.1629  -28.8281 C   0  0  0  0  0  0  0  0  0  0  0  0
  -10.7775   12.9086  -29.7088 N   0  0  0  0  0  0  0  0  0  0  0  0
  -10.0741   13.8833  -30.2456 C   0  0  0  0  0  0  0  0  0  0  0  0
  -10.2547   15.2054  -30.0133 N   0  0  0  0  0  0  0  0  0  0  0  0
  -11.2475   15.4974  -29.1551 C   0  0  0  0  0  0  0  0  0  0  0  0
  -11.6195   16.8133  -28.7624 N   0  0  0  0  0  0  0  0  0  0  0  0
  -10.9502   17.8906  -29.3746 C   0  0  0  0  0  0  0  0  0  0  0  0
  -10.5267   18.9641  -28.6540 C   0  0  0  0  0  0  0  0  0  0  0  0
   -9.8498   19.9948  -29.2930 C   0  0  0  0  0  0  0  0  0  0  0  0
   -9.5608   20.0196  -30.6432 C   0  0  0  0  0  0  0  0  0  0  0  0
   -8.9094   20.9866  -31.3187 O   0  0  0  0  0  0  0  0  0  0  0  0
   -7.7736   21.6817  -31.0996 C   0  0  0  0  0  0  0  0  0  0  0  0
   -6.5083   20.9821  -30.9025 C   0  0  0  0  0  0  0  0  0  0  0  0
   -5.5393   21.3951  -30.0389 C   0  0  0  0  0  0  0  0  0  0  0  0
   -4.3406   20.7067  -29.8382 C   0  0  0  0  0  0  0  0  0  0  0  0
   -4.1020   19.5574  -30.5316 C   0  0  0  0  0  0  0  0  0  0  0  0
   -5.0697   19.1211  -31.4122 C   0  0  0  0  0  0  0  0  0  0  0  0
   -4.8425   17.9767  -32.1080 F   0  0  0  0  0  0  0  0  0  0  0  0
   -6.2455   19.8042  -31.6030 C   0  0  0  0  0  0  0  0  0  0  0  0
  -10.0230   18.8780  -31.3556 C   0  0  0  0  0  0  0  0  0  0  0  0
   -9.6854   18.8541  -33.0690 Cl  0  0  0  0  0  0  0  0  0  0  0  0
  -10.6899   17.8676  -30.7176 C   0  0  0  0  0  0  0  0  0  0  0  0
  -12.0209   14.4873  -28.5595 C   0  0  0  0  0  0  0  0  0  0  0  0
  -13.3186   14.3913  -27.4476 S   0  0  0  0  0  0  0  0  0  0  0  0
  -15.4125   13.8199  -25.6191 C   0  0  0  0  0  0  0  0  0  0  0  0
  -16.4153   14.4818  -24.9457 C   0  0  0  0  0  0  0  0  0  0  0  0
  -17.6364   16.7277  -24.0145 C   0  0  0  0  0  0  0  0  0  0  0  0
  -17.7506   18.0949  -24.6625 C   0  0  0  0  0  0  0  0  0  0  0  0
  1  2  1  0
  2  3  1  0
  3  4  1  0
  4  5  1  0
  5  6  1  0
  6  7  1  0
  7  8  2  0
  8  9  1  0
  9 10  2  0
 10 11  1  0
 11 12  1  0
 12 13  2  0
 13 14  1  0
 14 15  2  0
 15 16  1  0
 16 17  2  0
 17 18  1  0
 18 19  1  0
 19 20  1  0
 20 21  2  0
 21 22  1  0
 22 23  2  0
 23 24  1  0
 24 25  1  0
 25 26  1  0
 26 27  2  0
 27 28  1  0
 28 29  2  0
 29 30  1  0
 30 31  1  0
 30 32  2  0
 23 33  1  0
 33 34  1  0
 33 35  2  0
 18 36  2  0
 36 37  1  0
 10 38  1  0
 38 39  2  0
  5 40  1  0
 40 41  1  0
 41  2  1  0
 39  7  1  0
 37 12  1  0
 36 14  1  0
 35 20  1  0
 32 26  1  0
M  CHG  1   5   1
M  END
$$$$
CHEMBL255871_diffdock_1
     RDKit          3D

 29 32  0  0  0  0  0  0  0  0999 V2000
  -16.0816   11.3842  -26.4129 C   0  0  0  0  0  0  0  0  0  0  0  0
  -15.1414   11.2289  -27.4754 O   0  0  0  0  0  0  0  0  0  0  0  0
  -14.4438   12.3555  -27.8398 N   0  0  0  0  0  0  0  0  0  0  0  0
  -13.2240   12.2448  -28.1686 C   0  0  0  0  0  0  0  0  0  0  0  0
  -12.3807   13.3016  -28.6640 C   0  0  0  0  0  0  0  0  0  0  0  0
  -11.3101   12.9893  -29.4744 C   0  0  0  0  0  0  0  0  0  0  0  0
  -11.0901   11.6196  -29.7848 N   0  0  0  0  0  0  0  0  0  0  0  0
  -10.5173   13.9832  -29.9398 N   0  0  0  0  0  0  0  0  0  0  0  0
  -10.7662   15.2678  -29.6182 C   0  0  0  0  0  0  0  0  0  0  0  0
  -11.8162   15.5353  -28.8277 N   0  0  0  0  0  0  0  0  0  0  0  0
  -12.6559   14.6158  -28.3201 C   0  0  0  0  0  0  0  0  0  0  0  0
  -13.7578   14.8781  -27.4862 N   0  0  0  0  0  0  0  0  0  0  0  0
  -14.1538   16.1301  -26.9593 C   0  0  0  0  0  0  0  0  0  0  0  0
  -15.0863   16.1529  -25.9311 C   0  0  0  0  0  0  0  0  0  0  0  0
  -15.5163   17.3371  -25.3799 C   0  0  0  0  0  0  0  0  0  0  0  0
  -15.0438   18.5587  -25.8197 C   0  0  0  0  0  0  0  0  0  0  0  0
  -14.1174   18.5690  -26.8391 C   0  0  0  0  0  0  0  0  0  0  0  0
  -13.8024   19.8862  -27.0997 C   0  0  0  0  0  0  0  0  0  0  0  0
  -14.5287   20.6250  -26.2514 N   0  0  0  0  0  0  0  0  0  0  0  0
  -15.2759   19.8395  -25.4800 N   0  0  0  0  0  0  0  0  0  0  0  0
  -16.1876   20.2820  -24.4437 C   0  0  0  0  0  0  0  0  0  0  0  0
  -15.7366   19.8538  -23.0953 C   0  0  0  0  0  0  0  0  0  0  0  0
  -16.5779   19.3140  -22.1451 C   0  0  0  0  0  0  0  0  0  0  0  0
  -16.1212   18.9259  -20.9015 C   0  0  0  0  0  0  0  0  0  0  0  0
  -14.7915   19.0676  -20.5651 C   0  0  0  0  0  0  0  0  0  0  0  0
  -13.9318   19.6009  -21.4887 C   0  0  0  0  0  0  0  0  0  0  0  0
  -12.6147   19.7386  -21.1491 F   0  0  0  0  0  0  0  0  0  0  0  0
  -14.4004   19.9812  -22.7188 C   0  0  0  0  0  0  0  0  0  0  0  0
  -13.6926   17.3534  -27.3869 C   0  0  0  0  0  0  0  0  0  0  0  0
  1  2  1  0
  2  3  1  0
  3  4  2  0
  4  5  1  0
  5  6  2  0
  6  7  1  0
  6  8  1  0
  8  9  2  0
  9 10  1  0
 10 11  2  0
 11 12  1  0
 12 13  1  0
 13 14  2  0
 14 15  1  0
 15 16  2  0
 16 17  1  0
 17 18  1  0
 18 19  2  0
 19 20  1  0
 20 21  1  0
 21 22  1  0
 22 23  2  0
 23 24  1  0
 24 25  2  0
 25 26  1  0
 26 27  1  0
 26 28  2  0
 17 29  2  0
 11  5  1  0
 29 13  1  0
 20 16  1  0
 28 22  1  0
M  END
$$$$
CHEMBL255871_diffdock_2
     RDKit          3D

 29 32  0  0  0  0  0  0  0  0999 V2000
   -8.6003   18.5549  -30.1258 C   0  0  0  0  0  0  0  0  0  0  0  0
   -9.7855   18.1536  -30.8122 O   0  0  0  0  0  0  0  0  0  0  0  0
  -10.1708   16.8449  -30.6464 N   0  0  0  0  0  0  0  0  0  0  0  0
  -10.9592   16.5507  -29.6976 C   0  0  0  0  0  0  0  0  0  0  0  0
  -11.4653   15.2376  -29.3928 C   0  0  0  0  0  0  0  0  0  0  0  0
  -10.9524   14.1438  -30.0570 C   0  0  0  0  0  0  0  0  0  0  0  0
   -9.9346   14.3712  -31.0230 N   0  0  0  0  0  0  0  0  0  0  0  0
  -11.4286   12.9093  -29.7703 N   0  0  0  0  0  0  0  0  0  0  0  0
  -12.3946   12.7436  -28.8457 C   0  0  0  0  0  0  0  0  0  0  0  0
  -12.8705   13.8297  -28.2189 N   0  0  0  0  0  0  0  0  0  0  0  0
  -12.4591   15.0911  -28.4380 C   0  0  0  0  0  0  0  0  0  0  0  0
  -12.9505   16.2410  -27.7939 N   0  0  0  0  0  0  0  0  0  0  0  0
  -13.9343   16.2993  -26.7788 C   0  0  0  0  0  0  0  0  0  0  0  0
  -14.3387   17.5444  -26.3168 C   0  0  0  0  0  0  0  0  0  0  0  0
  -15.2867   17.6685  -25.3283 C   0  0  0  0  0  0  0  0  0  0  0  0
  -15.8819   16.5651  -24.7478 C   0  0  0  0  0  0  0  0  0  0  0  0
  -15.5014   15.3154  -25.1850 C   0  0  0  0  0  0  0  0  0  0  0  0
  -16.2242   14.3868  -24.4657 C   0  0  0  0  0  0  0  0  0  0  0  0
  -17.0070   15.0802  -23.6295 N   0  0  0  0  0  0  0  0  0  0  0  0
  -16.8099   16.3862  -23.7903 N   0  0  0  0  0  0  0  0  0  0  0  0
  -17.4803   17.4447  -23.0618 C   0  0  0  0  0  0  0  0  0  0  0  0
  -16.5687   18.1111  -22.0975 C   0  0  0  0  0  0  0  0  0  0  0  0
  -16.4968   19.4788  -21.9358 C   0  0  0  0  0  0  0  0  0  0  0  0
  -15.6368   20.0624  -21.0271 C   0  0  0  0  0  0  0  0  0  0  0  0
  -14.8112   19.2860  -20.2417 C   0  0  0  0  0  0  0  0  0  0  0  0
  -14.8604   17.9240  -20.3801 C   0  0  0  0  0  0  0  0  0  0  0  0
  -14.0394   17.1599  -19.5984 F   0  0  0  0  0  0  0  0  0  0  0  0
  -15.7193   17.3599  -21.2864 C   0  0  0  0  0  0  0  0  0  0  0  0
  -14.5351   15.2102  -26.1917 C   0  0  0  0  0  0  0  0  0  0  0  0
  1  2  1  0
  2  3  1  0
  3  4  2  0
  4  5  1  0
  5  6  2  0
  6  7  1  0
  6  8  1  0
  8  9  2  0
  9 10  1  0
 10 11  2  0
 11 12  1  0
 12 13  1  0
 13 14  2  0
 14 15  1  0
 15 16  2  0
 16 17  1  0
 17 18  1  0
 18 19  2  0
 19 20  1  0
 20 21  1  0
 21 22  1  0
 22 23  2  0
 23 24  1  0
 24 25  2  0
 25 26  1  0
 26 27  1  0
 26 28  2  0
 17 29  2  0
 11  5  1  0
 29 13  1  0
 20 16  1  0
 28 22  1  0
M  END
$$$$
CHEMBL255871_diffdock_3
     RDKit          3D

 29 32  0  0  0  0  0  0  0  0999 V2000
   -7.4769   18.5280  -28.4458 C   0  0  0  0  0  0  0  0  0  0  0  0
   -8.5481   18.3493  -29.3717 O   0  0  0  0  0  0  0  0  0  0  0  0
   -9.1111   17.0964  -29.4162 N   0  0  0  0  0  0  0  0  0  0  0  0
  -10.1371   16.8572  -28.7103 C   0  0  0  0  0  0  0  0  0  0  0  0
  -10.7691   15.5744  -28.5415 C   0  0  0  0  0  0  0  0  0  0  0  0
  -10.1803   14.4532  -29.0863 C   0  0  0  0  0  0  0  0  0  0  0  0
   -8.9610   14.6229  -29.7971 N   0  0  0  0  0  0  0  0  0  0  0  0
  -10.7748   13.2472  -28.9275 N   0  0  0  0  0  0  0  0  0  0  0  0
  -11.9311   13.1362  -28.2446 C   0  0  0  0  0  0  0  0  0  0  0  0
  -12.4759   14.2477  -27.7281 N   0  0  0  0  0  0  0  0  0  0  0  0
  -11.9582   15.4842  -27.8352 C   0  0  0  0  0  0  0  0  0  0  0  0
  -12.5184   16.6602  -27.3046 N   0  0  0  0  0  0  0  0  0  0  0  0
  -13.4851   16.7598  -26.2764 C   0  0  0  0  0  0  0  0  0  0  0  0
  -13.7242   18.0035  -25.7078 C   0  0  0  0  0  0  0  0  0  0  0  0
  -14.6469   18.1656  -24.7011 C   0  0  0  0  0  0  0  0  0  0  0  0
  -15.3793   17.1034  -24.2069 C   0  0  0  0  0  0  0  0  0  0  0  0
  -15.1645   15.8562  -24.7507 C   0  0  0  0  0  0  0  0  0  0  0  0
  -16.0006   14.9716  -24.1022 C   0  0  0  0  0  0  0  0  0  0  0  0
  -16.6859   15.6877  -23.2020 N   0  0  0  0  0  0  0  0  0  0  0  0
  -16.3214   16.9662  -23.2564 N   0  0  0  0  0  0  0  0  0  0  0  0
  -16.8482   18.0376  -22.4345 C   0  0  0  0  0  0  0  0  0  0  0  0
  -17.9485   18.7642  -23.1174 C   0  0  0  0  0  0  0  0  0  0  0  0
  -19.0294   18.1376  -23.7013 C   0  0  0  0  0  0  0  0  0  0  0  0
  -20.0348   18.8476  -24.3266 C   0  0  0  0  0  0  0  0  0  0  0  0
  -19.9895   20.2244  -24.3883 C   0  0  0  0  0  0  0  0  0  0  0  0
  -18.9277   20.8746  -23.8170 C   0  0  0  0  0  0  0  0  0  0  0  0
  -18.8888   22.2397  -23.8815 F   0  0  0  0  0  0  0  0  0  0  0  0
  -17.9379   20.1558  -23.2000 C   0  0  0  0  0  0  0  0  0  0  0  0
  -14.2213   15.7119  -25.7743 C   0  0  0  0  0  0  0  0  0  0  0  0
  1  2  1  0
  2  3  1  0
  3  4  2  0
  4  5  1  0
  5  6  2  0
  6  7  1  0
  6  8  1  0
  8  9  2  0
  9 10  1  0
 10 11  2  0
 11 12  1  0
 12 13  1  0
 13 14  2  0
 14 15  1  0
 15 16  2  0
 16 17  1  0
 17 18  1  0
 18 19  2  0
 19 20  1  0
 20 21  1  0
 21 22  1  0
 22 23  2  0
 23 24  1  0
 24 25  2  0
 25 26  1  0
 26 27  1  0
 26 28  2  0
 17 29  2  0
 11  5  1  0
 29 13  1  0
 20 16  1  0
 28 22  1  0
M  END
$$$$
CHEMBL255871_diffdock_4
     RDKit          3D

 29 32  0  0  0  0  0  0  0  0999 V2000
   -8.6059   18.8669  -31.1203 C   0  0  0  0  0  0  0  0  0  0  0  0
   -9.1146   18.4336  -29.8593 O   0  0  0  0  0  0  0  0  0  0  0  0
   -9.6339   17.1619  -29.8174 N   0  0  0  0  0  0  0  0  0  0  0  0
  -10.6769   16.9452  -29.1293 C   0  0  0  0  0  0  0  0  0  0  0  0
  -11.3295   15.6732  -28.9575 C   0  0  0  0  0  0  0  0  0  0  0  0
  -10.8985   14.5874  -29.6895 C   0  0  0  0  0  0  0  0  0  0  0  0
   -9.8154   14.7814  -30.5895 N   0  0  0  0  0  0  0  0  0  0  0  0
  -11.5124   13.3915  -29.5279 N   0  0  0  0  0  0  0  0  0  0  0  0
  -12.5357   13.2565  -28.6618 C   0  0  0  0  0  0  0  0  0  0  0  0
  -12.9288   14.3337  -27.9662 N   0  0  0  0  0  0  0  0  0  0  0  0
  -12.3800   15.5577  -28.0608 C   0  0  0  0  0  0  0  0  0  0  0  0
  -12.7828   16.6985  -27.3433 N   0  0  0  0  0  0  0  0  0  0  0  0
  -13.6545   16.7461  -26.2300 C   0  0  0  0  0  0  0  0  0  0  0  0
  -13.5399   17.8067  -25.3416 C   0  0  0  0  0  0  0  0  0  0  0  0
  -14.3534   17.9076  -24.2375 C   0  0  0  0  0  0  0  0  0  0  0  0
  -15.3218   16.9626  -23.9579 C   0  0  0  0  0  0  0  0  0  0  0  0
  -15.4600   15.8979  -24.8210 C   0  0  0  0  0  0  0  0  0  0  0  0
  -16.4766   15.1014  -24.3372 C   0  0  0  0  0  0  0  0  0  0  0  0
  -16.9196   15.6892  -23.2186 N   0  0  0  0  0  0  0  0  0  0  0  0
  -16.2346   16.8051  -22.9823 N   0  0  0  0  0  0  0  0  0  0  0  0
  -16.4340   17.7063  -21.8648 C   0  0  0  0  0  0  0  0  0  0  0  0
  -17.1636   18.9338  -22.2720 C   0  0  0  0  0  0  0  0  0  0  0  0
  -17.1280   20.1142  -21.5597 C   0  0  0  0  0  0  0  0  0  0  0  0
  -17.8191   21.2363  -21.9709 C   0  0  0  0  0  0  0  0  0  0  0  0
  -18.5775   21.2123  -23.1223 C   0  0  0  0  0  0  0  0  0  0  0  0
  -18.6321   20.0534  -23.8507 C   0  0  0  0  0  0  0  0  0  0  0  0
  -19.3856   20.0362  -24.9913 F   0  0  0  0  0  0  0  0  0  0  0  0
  -17.9404   18.9482  -23.4295 C   0  0  0  0  0  0  0  0  0  0  0  0
  -14.6225   15.8131  -25.9388 C   0  0  0  0  0  0  0  0  0  0  0  0
  1  2  1  0
  2  3  1  0
  3  4  2  0
  4  5  1  0
  5  6  2  0
  6  7  1  0
  6  8  1  0
  8  9  2  0
  9 10  1  0
 10 11  2  0
 11 12  1  0
 12 13  1  0
 13 14  2  0
 14 15  1  0
 15 16  2  0
 16 17  1  0
 17 18  1  0
 18 19  2  0
 19 20  1  0
 20 21  1  0
 21 22  1  0
 22 23  2  0
 23 24  1  0
 24 25  2  0
 25 26  1  0
 26 27  1  0
 26 28  2  0
 17 29  2  0
 11  5  1  0
 29 13  1  0
 20 16  1  0
 28 22  1  0
M  END
$$$$
CHEMBL255871_diffdock_5
     RDKit          3D

 29 32  0  0  0  0  0  0  0  0999 V2000
  -14.0791   18.1419  -26.2334 C   0  0  0  0  0  0  0  0  0  0  0  0
  -14.1615   16.7307  -26.4296 O   0  0  0  0  0  0  0  0  0  0  0  0
  -13.1860   16.1682  -27.2175 N   0  0  0  0  0  0  0  0  0  0  0  0
  -13.1172   14.9049  -27.3043 C   0  0  0  0  0  0  0  0  0  0  0  0
  -12.1359   14.1590  -28.0485 C   0  0  0  0  0  0  0  0  0  0  0  0
  -12.1780   12.7811  -28.0319 C   0  0  0  0  0  0  0  0  0  0  0  0
  -13.2035   12.1576  -27.2701 N   0  0  0  0  0  0  0  0  0  0  0  0
  -11.2551   12.0800  -28.7317 N   0  0  0  0  0  0  0  0  0  0  0  0
  -10.3015   12.7161  -29.4399 C   0  0  0  0  0  0  0  0  0  0  0  0
  -10.2904   14.0572  -29.4337 N   0  0  0  0  0  0  0  0  0  0  0  0
  -11.1642   14.8345  -28.7699 C   0  0  0  0  0  0  0  0  0  0  0  0
  -11.1640   16.2409  -28.7484 N   0  0  0  0  0  0  0  0  0  0  0  0
  -10.2553   17.1071  -29.4009 C   0  0  0  0  0  0  0  0  0  0  0  0
   -9.2114   17.6510  -28.6651 C   0  0  0  0  0  0  0  0  0  0  0  0
   -8.2981   18.5038  -29.2394 C   0  0  0  0  0  0  0  0  0  0  0  0
   -8.3732   18.8605  -30.5721 C   0  0  0  0  0  0  0  0  0  0  0  0
   -9.3983   18.3371  -31.3288 C   0  0  0  0  0  0  0  0  0  0  0  0
   -9.2637   18.8330  -32.6087 C   0  0  0  0  0  0  0  0  0  0  0  0
   -8.1851   19.6264  -32.5968 N   0  0  0  0  0  0  0  0  0  0  0  0
   -7.6440   19.6499  -31.3815 N   0  0  0  0  0  0  0  0  0  0  0  0
   -6.4654   20.3964  -30.9884 C   0  0  0  0  0  0  0  0  0  0  0  0
   -5.2162   19.6635  -31.3155 C   0  0  0  0  0  0  0  0  0  0  0  0
   -5.1133   18.7532  -32.3464 C   0  0  0  0  0  0  0  0  0  0  0  0
   -3.9332   18.0916  -32.6213 C   0  0  0  0  0  0  0  0  0  0  0  0
   -2.8046   18.3230  -31.8637 C   0  0  0  0  0  0  0  0  0  0  0  0
   -2.8764   19.2221  -30.8327 C   0  0  0  0  0  0  0  0  0  0  0  0
   -1.7539   19.4470  -30.0854 F   0  0  0  0  0  0  0  0  0  0  0  0
   -4.0549   19.8706  -30.5725 C   0  0  0  0  0  0  0  0  0  0  0  0
  -10.3176   17.4713  -30.7259 C   0  0  0  0  0  0  0  0  0  0  0  0
  1  2  1  0
  2  3  1  0
  3  4  2  0
  4  5  1  0
  5  6  2  0
  6  7  1  0
  6  8  1  0
  8  9  2  0
  9 10  1  0
 10 11  2  0
 11 12  1  0
 12 13  1  0
 13 14  2  0
 14 15  1  0
 15 16  2  0
 16 17  1  0
 17 18  1  0
 18 19  2  0
 19 20  1  0
 20 21  1  0
 21 22  1  0
 22 23  2  0
 23 24  1  0
 24 25  2  0
 25 26  1  0
 26 27  1  0
 26 28  2  0
 17 29  2  0
 11  5  1  0
 29 13  1  0
 20 16  1  0
 28 22  1  0
M  END
$$$$
CHEMBL255871_diffdock_6
     RDKit          3D

 29 32  0  0  0  0  0  0  0  0999 V2000
  -16.1232   16.6320  -26.3619 C   0  0  0  0  0  0  0  0  0  0  0  0
  -14.9804   16.0234  -25.7615 O   0  0  0  0  0  0  0  0  0  0  0  0
  -14.3042   15.1075  -26.5312 N   0  0  0  0  0  0  0  0  0  0  0  0
  -13.3987   15.5151  -27.3199 C   0  0  0  0  0  0  0  0  0  0  0  0
  -12.5475   14.6862  -28.1334 C   0  0  0  0  0  0  0  0  0  0  0  0
  -12.7416   13.3214  -28.1433 C   0  0  0  0  0  0  0  0  0  0  0  0
  -13.7878   12.7940  -27.3383 N   0  0  0  0  0  0  0  0  0  0  0  0
  -11.9409   12.5422  -28.9082 N   0  0  0  0  0  0  0  0  0  0  0  0
  -10.9617   13.0886  -29.6553 C   0  0  0  0  0  0  0  0  0  0  0  0
  -10.8013   14.4198  -29.6217 N   0  0  0  0  0  0  0  0  0  0  0  0
  -11.5467   15.2702  -28.8938 C   0  0  0  0  0  0  0  0  0  0  0  0
  -11.3890   16.6669  -28.8430 N   0  0  0  0  0  0  0  0  0  0  0  0
  -10.4710   17.4523  -29.5794 C   0  0  0  0  0  0  0  0  0  0  0  0
   -9.6207   18.3039  -28.8872 C   0  0  0  0  0  0  0  0  0  0  0  0
   -8.7100   19.0971  -29.5449 C   0  0  0  0  0  0  0  0  0  0  0  0
   -8.5958   19.0866  -30.9217 C   0  0  0  0  0  0  0  0  0  0  0  0
   -9.4262   18.2519  -31.6369 C   0  0  0  0  0  0  0  0  0  0  0  0
   -9.1282   18.4165  -32.9734 C   0  0  0  0  0  0  0  0  0  0  0  0
   -8.1472   19.3258  -33.0343 N   0  0  0  0  0  0  0  0  0  0  0  0
   -7.8207   19.7338  -31.8106 N   0  0  0  0  0  0  0  0  0  0  0  0
   -6.8005   20.7096  -31.4822 C   0  0  0  0  0  0  0  0  0  0  0  0
   -5.4945   20.0640  -31.1950 C   0  0  0  0  0  0  0  0  0  0  0  0
   -4.4515   20.7026  -30.5578 C   0  0  0  0  0  0  0  0  0  0  0  0
   -3.2511   20.0686  -30.3067 C   0  0  0  0  0  0  0  0  0  0  0  0
   -3.0542   18.7588  -30.6904 C   0  0  0  0  0  0  0  0  0  0  0  0
   -4.0725   18.0985  -31.3256 C   0  0  0  0  0  0  0  0  0  0  0  0
   -3.8709   16.8001  -31.7033 F   0  0  0  0  0  0  0  0  0  0  0  0
   -5.2579   18.7416  -31.5675 C   0  0  0  0  0  0  0  0  0  0  0  0
  -10.3462   17.4526  -30.9492 C   0  0  0  0  0  0  0  0  0  0  0  0
  1  2  1  0
  2  3  1  0
  3  4  2  0
  4  5  1  0
  5  6  2  0
  6  7  1  0
  6  8  1  0
  8  9  2  0
  9 10  1  0
 10 11  2  0
 11 12  1  0
 12 13  1  0
 13 14  2  0
 14 15  1  0
 15 16  2  0
 16 17  1  0
 17 18  1  0
 18 19  2  0
 19 20  1  0
 20 21  1  0
 21 22  1  0
 22 23  2  0
 23 24  1  0
 24 25  2  0
 25 26  1  0
 26 27  1  0
 26 28  2  0
 17 29  2  0
 11  5  1  0
 29 13  1  0
 20 16  1  0
 28 22  1  0
M  END
$$$$
CHEMBL255871_diffdock_7
     RDKit          3D

 29 32  0  0  0  0  0  0  0  0999 V2000
  -15.4602   17.2627  -25.3780 C   0  0  0  0  0  0  0  0  0  0  0  0
  -14.1240   16.7946  -25.1983 O   0  0  0  0  0  0  0  0  0  0  0  0
  -13.7721   15.6720  -25.9087 N   0  0  0  0  0  0  0  0  0  0  0  0
  -13.0474   15.7991  -26.9415 C   0  0  0  0  0  0  0  0  0  0  0  0
  -12.4706   14.7261  -27.7092 C   0  0  0  0  0  0  0  0  0  0  0  0
  -12.9292   13.4393  -27.5240 C   0  0  0  0  0  0  0  0  0  0  0  0
  -13.9638   13.2341  -26.5710 N   0  0  0  0  0  0  0  0  0  0  0  0
  -12.3865   12.4305  -28.2458 N   0  0  0  0  0  0  0  0  0  0  0  0
  -11.4071   12.6745  -29.1385 C   0  0  0  0  0  0  0  0  0  0  0  0
  -10.9853   13.9382  -29.2929 N   0  0  0  0  0  0  0  0  0  0  0  0
  -11.4642   15.0006  -28.6218 C   0  0  0  0  0  0  0  0  0  0  0  0
  -11.0303   16.3306  -28.7675 N   0  0  0  0  0  0  0  0  0  0  0  0
   -9.9924   16.8058  -29.6034 C   0  0  0  0  0  0  0  0  0  0  0  0
  -10.3076   17.7208  -30.5987 C   0  0  0  0  0  0  0  0  0  0  0  0
   -9.3455   18.2164  -31.4471 C   0  0  0  0  0  0  0  0  0  0  0  0
   -8.0223   17.8304  -31.3521 C   0  0  0  0  0  0  0  0  0  0  0  0
   -7.6781   16.9232  -30.3743 C   0  0  0  0  0  0  0  0  0  0  0  0
   -6.3215   16.6971  -30.4778 C   0  0  0  0  0  0  0  0  0  0  0  0
   -5.8867   17.4552  -31.4923 N   0  0  0  0  0  0  0  0  0  0  0  0
   -6.8976   18.1383  -32.0231 N   0  0  0  0  0  0  0  0  0  0  0  0
   -6.8096   19.0627  -33.1359 C   0  0  0  0  0  0  0  0  0  0  0  0
   -6.7511   20.4732  -32.6755 C   0  0  0  0  0  0  0  0  0  0  0  0
   -6.8582   21.5570  -33.5216 C   0  0  0  0  0  0  0  0  0  0  0  0
   -6.8005   22.8554  -33.0559 C   0  0  0  0  0  0  0  0  0  0  0  0
   -6.6317   23.1134  -31.7120 C   0  0  0  0  0  0  0  0  0  0  0  0
   -6.5222   22.0566  -30.8472 C   0  0  0  0  0  0  0  0  0  0  0  0
   -6.3551   22.3192  -29.5160 F   0  0  0  0  0  0  0  0  0  0  0  0
   -6.5815   20.7738  -31.3248 C   0  0  0  0  0  0  0  0  0  0  0  0
   -8.6716   16.4306  -29.5209 C   0  0  0  0  0  0  0  0  0  0  0  0
  1  2  1  0
  2  3  1  0
  3  4  2  0
  4  5  1  0
  5  6  2  0
  6  7  1  0
  6  8  1  0
  8  9  2  0
  9 10  1  0
 10 11  2  0
 11 12  1  0
 12 13  1  0
 13 14  2  0
 14 15  1  0
 15 16  2  0
 16 17  1  0
 17 18  1  0
 18 19  2  0
 19 20  1  0
 20 21  1  0
 21 22  1  0
 22 23  2  0
 23 24  1  0
 24 25  2  0
 25 26  1  0
 26 27  1  0
 26 28  2  0
 17 29  2  0
 11  5  1  0
 29 13  1  0
 20 16  1  0
 28 22  1  0
M  END
$$$$
CHEMBL255871_diffdock_8
     RDKit          3D

 29 32  0  0  0  0  0  0  0  0999 V2000
  -17.3792   12.7490  -26.2014 C   0  0  0  0  0  0  0  0  0  0  0  0
  -16.1370   12.5324  -25.5328 O   0  0  0  0  0  0  0  0  0  0  0  0
  -15.0284   12.4058  -26.3351 N   0  0  0  0  0  0  0  0  0  0  0  0
  -14.4150   13.4515  -26.7070 C   0  0  0  0  0  0  0  0  0  0  0  0
  -13.2174   13.4925  -27.5054 C   0  0  0  0  0  0  0  0  0  0  0  0
  -12.8002   12.3522  -28.1583 C   0  0  0  0  0  0  0  0  0  0  0  0
  -13.5853   11.1767  -28.0083 N   0  0  0  0  0  0  0  0  0  0  0  0
  -11.6739   12.3910  -28.9088 N   0  0  0  0  0  0  0  0  0  0  0  0
  -10.9626   13.5298  -29.0212 C   0  0  0  0  0  0  0  0  0  0  0  0
  -11.3976   14.6201  -28.3725 N   0  0  0  0  0  0  0  0  0  0  0  0
  -12.5016   14.6750  -27.6066 C   0  0  0  0  0  0  0  0  0  0  0  0
  -12.9691   15.8076  -26.9158 N   0  0  0  0  0  0  0  0  0  0  0  0
  -12.2928   17.0362  -26.7291 C   0  0  0  0  0  0  0  0  0  0  0  0
  -12.4896   17.7289  -25.5422 C   0  0  0  0  0  0  0  0  0  0  0  0
  -11.8658   18.9307  -25.3022 C   0  0  0  0  0  0  0  0  0  0  0  0
  -11.0153   19.5068  -26.2262 C   0  0  0  0  0  0  0  0  0  0  0  0
  -10.7998   18.8433  -27.4140 C   0  0  0  0  0  0  0  0  0  0  0  0
   -9.9268   19.6054  -28.1619 C   0  0  0  0  0  0  0  0  0  0  0  0
   -9.6411   20.6871  -27.4261 N   0  0  0  0  0  0  0  0  0  0  0  0
  -10.2880   20.6379  -26.2644 N   0  0  0  0  0  0  0  0  0  0  0  0
  -10.2232   21.6313  -25.2109 C   0  0  0  0  0  0  0  0  0  0  0  0
  -11.4271   22.5004  -25.2000 C   0  0  0  0  0  0  0  0  0  0  0  0
  -11.8608   23.1893  -24.0868 C   0  0  0  0  0  0  0  0  0  0  0  0
  -12.9853   23.9896  -24.1155 C   0  0  0  0  0  0  0  0  0  0  0  0
  -13.7207   24.1275  -25.2737 C   0  0  0  0  0  0  0  0  0  0  0  0
  -13.3142   23.4551  -26.3959 C   0  0  0  0  0  0  0  0  0  0  0  0
  -14.0475   23.5961  -27.5410 F   0  0  0  0  0  0  0  0  0  0  0  0
  -12.1959   22.6647  -26.3513 C   0  0  0  0  0  0  0  0  0  0  0  0
  -11.4439   17.6217  -27.6394 C   0  0  0  0  0  0  0  0  0  0  0  0
  1  2  1  0
  2  3  1  0
  3  4  2  0
  4  5  1  0
  5  6  2  0
  6  7  1  0
  6  8  1  0
  8  9  2  0
  9 10  1  0
 10 11  2  0
 11 12  1  0
 12 13  1  0
 13 14  2  0
 14 15  1  0
 15 16  2  0
 16 17  1  0
 17 18  1  0
 18 19  2  0
 19 20  1  0
 20 21  1  0
 21 22  1  0
 22 23  2  0
 23 24  1  0
 24 25  2  0
 25 26  1  0
 26 27  1  0
 26 28  2  0
 17 29  2  0
 11  5  1  0
 29 13  1  0
 20 16  1  0
 28 22  1  0
M  END
$$$$
CHEMBL255871_diffdock_9
     RDKit          3D

 29 32  0  0  0  0  0  0  0  0999 V2000
   -7.9318   17.9485  -30.4897 C   0  0  0  0  0  0  0  0  0  0  0  0
   -9.2919   17.7342  -30.8651 O   0  0  0  0  0  0  0  0  0  0  0  0
   -9.7966   16.4775  -30.6316 N   0  0  0  0  0  0  0  0  0  0  0  0
  -10.7155   16.3334  -29.7696 C   0  0  0  0  0  0  0  0  0  0  0  0
  -11.3226   15.0877  -29.3784 C   0  0  0  0  0  0  0  0  0  0  0  0
  -10.7887   13.9019  -29.8357 C   0  0  0  0  0  0  0  0  0  0  0  0
   -9.6487   13.9701  -30.6823 N   0  0  0  0  0  0  0  0  0  0  0  0
  -11.3599   12.7308  -29.4680 N   0  0  0  0  0  0  0  0  0  0  0  0
  -12.4402   12.7167  -28.6628 C   0  0  0  0  0  0  0  0  0  0  0  0
  -12.9333   13.8889  -28.2366 N   0  0  0  0  0  0  0  0  0  0  0  0
  -12.4333   15.0975  -28.5494 C   0  0  0  0  0  0  0  0  0  0  0  0
  -12.9404   16.3357  -28.1158 N   0  0  0  0  0  0  0  0  0  0  0  0
  -13.9488   16.5565  -27.1483 C   0  0  0  0  0  0  0  0  0  0  0  0
  -14.7411   15.4852  -26.7585 C   0  0  0  0  0  0  0  0  0  0  0  0
  -15.7414   15.6355  -25.8268 C   0  0  0  0  0  0  0  0  0  0  0  0
  -16.0069   16.8550  -25.2341 C   0  0  0  0  0  0  0  0  0  0  0  0
  -15.2377   17.9374  -25.6004 C   0  0  0  0  0  0  0  0  0  0  0  0
  -15.6867   19.0266  -24.8834 C   0  0  0  0  0  0  0  0  0  0  0  0
  -16.6939   18.5879  -24.1177 N   0  0  0  0  0  0  0  0  0  0  0  0
  -16.8940   17.2882  -24.3201 N   0  0  0  0  0  0  0  0  0  0  0  0
  -17.8958   16.4690  -23.6674 C   0  0  0  0  0  0  0  0  0  0  0  0
  -17.3219   15.6947  -22.5377 C   0  0  0  0  0  0  0  0  0  0  0  0
  -17.8210   14.4813  -22.1130 C   0  0  0  0  0  0  0  0  0  0  0  0
  -17.2593   13.7894  -21.0586 C   0  0  0  0  0  0  0  0  0  0  0  0
  -16.1666   14.2965  -20.3875 C   0  0  0  0  0  0  0  0  0  0  0  0
  -15.6488   15.5002  -20.7869 C   0  0  0  0  0  0  0  0  0  0  0  0
  -14.5654   15.9974  -20.1175 F   0  0  0  0  0  0  0  0  0  0  0  0
  -16.2176   16.1747  -21.8352 C   0  0  0  0  0  0  0  0  0  0  0  0
  -14.2248   17.7640  -26.5502 C   0  0  0  0  0  0  0  0  0  0  0  0
  1  2  1  0
  2  3  1  0
  3  4  2  0
  4  5  1  0
  5  6  2  0
  6  7  1  0
  6  8  1  0
  8  9  2  0
  9 10  1  0
 10 11  2  0
 11 12  1  0
 12 13  1  0
 13 14  2  0
 14 15  1  0
 15 16  2  0
 16 17  1  0
 17 18  1  0
 18 19  2  0
 19 20  1  0
 20 21  1  0
 21 22  1  0
 22 23  2  0
 23 24  1  0
 24 25  2  0
 25 26  1  0
 26 27  1  0
 26 28  2  0
 17 29  2  0
 11  5  1  0
 29 13  1  0
 20 16  1  0
 28 22  1  0
M  END
$$$$
CHEMBL255871_diffdock_10
     RDKit          3D

 29 32  0  0  0  0  0  0  0  0999 V2000
  -37.1644   47.5190   92.0457 C   0  0  0  0  0  0  0  0  0  0  0  0
  -38.2876   47.4583   92.9241 O   0  0  0  0  0  0  0  0  0  0  0  0
  -38.1422   48.0799   94.1412 N   0  0  0  0  0  0  0  0  0  0  0  0
  -39.1730   48.5190   94.7352 C   0  0  0  0  0  0  0  0  0  0  0  0
  -39.2092   49.0978   96.0532 C   0  0  0  0  0  0  0  0  0  0  0  0
  -40.3694   49.0218   96.7939 C   0  0  0  0  0  0  0  0  0  0  0  0
  -41.4874   48.3657   96.2105 N   0  0  0  0  0  0  0  0  0  0  0  0
  -40.4033   49.5663   98.0330 N   0  0  0  0  0  0  0  0  0  0  0  0
  -39.3170   50.1782   98.5440 C   0  0  0  0  0  0  0  0  0  0  0  0
  -38.2052   50.2338   97.7958 N   0  0  0  0  0  0  0  0  0  0  0  0
  -38.0798   49.7224   96.5584 C   0  0  0  0  0  0  0  0  0  0  0  0
  -36.9240   49.7761   95.7586 N   0  0  0  0  0  0  0  0  0  0  0  0
  -35.6900   50.3903   96.0774 C   0  0  0  0  0  0  0  0  0  0  0  0
  -34.5847   50.1104   95.2854 C   0  0  0  0  0  0  0  0  0  0  0  0
  -33.3562   50.6709   95.5459 C   0  0  0  0  0  0  0  0  0  0  0  0
  -33.1610   51.5372   96.6044 C   0  0  0  0  0  0  0  0  0  0  0  0
  -34.2389   51.8345   97.4089 C   0  0  0  0  0  0  0  0  0  0  0  0
  -33.8010   52.7073   98.3828 C   0  0  0  0  0  0  0  0  0  0  0  0
  -32.4985   52.9129   98.1503 N   0  0  0  0  0  0  0  0  0  0  0  0
  -32.1049   52.2167   97.0870 N   0  0  0  0  0  0  0  0  0  0  0  0
  -30.7654   52.1912   96.5338 C   0  0  0  0  0  0  0  0  0  0  0  0
  -30.5002   53.3775   95.6810 C   0  0  0  0  0  0  0  0  0  0  0  0
  -29.4656   54.2615   95.9040 C   0  0  0  0  0  0  0  0  0  0  0  0
  -29.2495   55.3536   95.0877 C   0  0  0  0  0  0  0  0  0  0  0  0
  -30.0724   55.5987   94.0087 C   0  0  0  0  0  0  0  0  0  0  0  0
  -31.1089   54.7376   93.7621 C   0  0  0  0  0  0  0  0  0  0  0  0
  -31.9210   54.9861   92.6908 F   0  0  0  0  0  0  0  0  0  0  0  0
  -31.3101   53.6581   94.5815 C   0  0  0  0  0  0  0  0  0  0  0  0
  -35.4806   51.2539   97.1273 C   0  0  0  0  0  0  0  0  0  0  0  0
  1  2  1  0
  2  3  1  0
  3  4  2  0
  4  5  1  0
  5  6  2  0
  6  7  1  0
  6  8  1  0
  8  9  2  0
  9 10  1  0
 10 11  2  0
 11 12  1  0
 12 13  1  0
 13 14  2  0
 14 15  1  0
 15 16  2  0
 16 17  1  0
 17 18  1  0
 18 19  2  0
 19 20  1  0
 20 21  1  0
 21 22  1  0
 22 23  2  0
 23 24  1  0
 24 25  2  0
 25 26  1  0
 26 27  1  0
 26 28  2  0
 17 29  2  0
 11  5  1  0
 29 13  1  0
 20 16  1  0
 28 22  1  0
M  END
$$$$
CHEMBL51854_diffdock_1
     RDKit          3D

 20 22  0  0  0  0  0  0  0  0999 V2000
   -9.8458   18.7439  -29.2421 C   0  0  0  0  0  0  0  0  0  0  0  0
   -9.4515   17.6662  -30.0497 O   0  0  0  0  0  0  0  0  0  0  0  0
   -9.9766   16.3919  -29.8188 C   0  0  0  0  0  0  0  0  0  0  0  0
   -9.4882   15.3190  -30.4658 N   0  0  0  0  0  0  0  0  0  0  0  0
   -9.9694   14.0818  -30.2674 C   0  0  0  0  0  0  0  0  0  0  0  0
  -10.9991   13.9472  -29.3621 C   0  0  0  0  0  0  0  0  0  0  0  0
  -11.5139   12.7268  -29.1301 N   0  0  0  0  0  0  0  0  0  0  0  0
  -12.5335   12.5746  -28.2371 C   0  0  0  0  0  0  0  0  0  0  0  0
  -13.0088   13.6570  -27.6000 N   0  0  0  0  0  0  0  0  0  0  0  0
  -12.5671   14.9071  -27.7603 C   0  0  0  0  0  0  0  0  0  0  0  0
  -13.0233   16.0625  -27.1282 N   0  0  0  0  0  0  0  0  0  0  0  0
  -13.8624   16.1129  -25.9896 C   0  0  0  0  0  0  0  0  0  0  0  0
  -15.1361   15.5963  -25.9484 C   0  0  0  0  0  0  0  0  0  0  0  0
  -15.8884   15.7073  -24.7866 C   0  0  0  0  0  0  0  0  0  0  0  0
  -15.3998   16.3226  -23.6602 C   0  0  0  0  0  0  0  0  0  0  0  0
  -14.1437   16.8408  -23.6752 C   0  0  0  0  0  0  0  0  0  0  0  0
  -13.3521   17.7241  -22.1591 Br  0  0  0  0  0  0  0  0  0  0  0  0
  -13.4046   16.7314  -24.8188 C   0  0  0  0  0  0  0  0  0  0  0  0
  -11.5161   15.0323  -28.6869 C   0  0  0  0  0  0  0  0  0  0  0  0
  -10.9813   16.2404  -28.9392 N   0  0  0  0  0  0  0  0  0  0  0  0
  1  2  1  0
  2  3  1  0
  3  4  2  0
  4  5  1  0
  5  6  2  0
  6  7  1  0
  7  8  2  0
  8  9  1  0
  9 10  2  0
 10 11  1  0
 11 12  1  0
 12 13  2  0
 13 14  1  0
 14 15  2  0
 15 16  1  0
 16 17  1  0
 16 18  2  0
 10 19  1  0
 19 20  2  0
 20  3  1  0
 19  6  1  0
 18 12  1  0
M  END
$$$$
CHEMBL51854_diffdock_2
     RDKit          3D

 20 22  0  0  0  0  0  0  0  0999 V2000
  -10.2579   18.8474  -29.7207 C   0  0  0  0  0  0  0  0  0  0  0  0
   -9.6684   17.7485  -30.3643 O   0  0  0  0  0  0  0  0  0  0  0  0
  -10.1566   16.4597  -30.1331 C   0  0  0  0  0  0  0  0  0  0  0  0
   -9.6167   15.3975  -30.7565 N   0  0  0  0  0  0  0  0  0  0  0  0
  -10.0614   14.1468  -30.5571 C   0  0  0  0  0  0  0  0  0  0  0  0
  -11.1084   13.9866  -29.6762 C   0  0  0  0  0  0  0  0  0  0  0  0
  -11.5882   12.7519  -29.4442 N   0  0  0  0  0  0  0  0  0  0  0  0
  -12.6241   12.5744  -28.5750 C   0  0  0  0  0  0  0  0  0  0  0  0
  -13.1509   13.6464  -27.9613 N   0  0  0  0  0  0  0  0  0  0  0  0
  -12.7471   14.9090  -28.1238 C   0  0  0  0  0  0  0  0  0  0  0  0
  -13.2571   16.0545  -27.5153 N   0  0  0  0  0  0  0  0  0  0  0  0
  -14.2198   16.0885  -26.4785 C   0  0  0  0  0  0  0  0  0  0  0  0
  -14.4839   17.1972  -25.7090 C   0  0  0  0  0  0  0  0  0  0  0  0
  -15.4394   17.1279  -24.7039 C   0  0  0  0  0  0  0  0  0  0  0  0
  -16.1412   15.9758  -24.4464 C   0  0  0  0  0  0  0  0  0  0  0  0
  -15.8991   14.8666  -25.1931 C   0  0  0  0  0  0  0  0  0  0  0  0
  -16.8195   13.1972  -24.9257 Br  0  0  0  0  0  0  0  0  0  0  0  0
  -14.9587   14.9358  -26.1814 C   0  0  0  0  0  0  0  0  0  0  0  0
  -11.6779   15.0603  -29.0253 C   0  0  0  0  0  0  0  0  0  0  0  0
  -11.1774   16.2831  -29.2770 N   0  0  0  0  0  0  0  0  0  0  0  0
  1  2  1  0
  2  3  1  0
  3  4  2  0
  4  5  1  0
  5  6  2  0
  6  7  1  0
  7  8  2  0
  8  9  1  0
  9 10  2  0
 10 11  1  0
 11 12  1  0
 12 13  2  0
 13 14  1  0
 14 15  2  0
 15 16  1  0
 16 17  1  0
 16 18  2  0
 10 19  1  0
 19 20  2  0
 20  3  1  0
 19  6  1  0
 18 12  1  0
M  END
$$$$
CHEMBL51854_diffdock_3
     RDKit          3D

 20 22  0  0  0  0  0  0  0  0999 V2000
  -14.9996   16.8473  -25.7913 C   0  0  0  0  0  0  0  0  0  0  0  0
  -14.9361   15.4457  -25.8181 O   0  0  0  0  0  0  0  0  0  0  0  0
  -13.9569   14.8057  -26.5827 C   0  0  0  0  0  0  0  0  0  0  0  0
  -13.9051   13.4637  -26.6503 N   0  0  0  0  0  0  0  0  0  0  0  0
  -12.9781   12.8176  -27.3749 C   0  0  0  0  0  0  0  0  0  0  0  0
  -12.0659   13.5908  -28.0589 C   0  0  0  0  0  0  0  0  0  0  0  0
  -11.1182   12.9882  -28.7985 N   0  0  0  0  0  0  0  0  0  0  0  0
  -10.2069   13.7378  -29.4825 C   0  0  0  0  0  0  0  0  0  0  0  0
  -10.2737   15.0767  -29.4036 N   0  0  0  0  0  0  0  0  0  0  0  0
  -11.1732   15.7679  -28.6988 C   0  0  0  0  0  0  0  0  0  0  0  0
  -11.2869   17.1520  -28.5816 N   0  0  0  0  0  0  0  0  0  0  0  0
  -10.4892   18.1126  -29.2480 C   0  0  0  0  0  0  0  0  0  0  0  0
   -9.9909   19.2470  -28.6515 C   0  0  0  0  0  0  0  0  0  0  0  0
   -9.2280   20.1386  -29.3938 C   0  0  0  0  0  0  0  0  0  0  0  0
   -8.9480   19.9258  -30.7214 C   0  0  0  0  0  0  0  0  0  0  0  0
   -9.4283   18.8119  -31.3338 C   0  0  0  0  0  0  0  0  0  0  0  0
   -9.1014   18.4068  -33.1870 Br  0  0  0  0  0  0  0  0  0  0  0  0
  -10.1791   17.9356  -30.6028 C   0  0  0  0  0  0  0  0  0  0  0  0
  -12.0992   14.9680  -28.0048 C   0  0  0  0  0  0  0  0  0  0  0  0
  -13.0581   15.5430  -27.2571 N   0  0  0  0  0  0  0  0  0  0  0  0
  1  2  1  0
  2  3  1  0
  3  4  2  0
  4  5  1  0
  5  6  2  0
  6  7  1  0
  7  8  2  0
  8  9  1  0
  9 10  2  0
 10 11  1  0
 11 12  1  0
 12 13  2  0
 13 14  1  0
 14 15  2  0
 15 16  1  0
 16 17  1  0
 16 18  2  0
 10 19  1  0
 19 20  2  0
 20  3  1  0
 19  6  1  0
 18 12  1  0
M  END
$$$$
CHEMBL51854_diffdock_4
     RDKit          3D

 20 22  0  0  0  0  0  0  0  0999 V2000
  -15.0198   16.8086  -25.7452 C   0  0  0  0  0  0  0  0  0  0  0  0
  -14.9829   15.4089  -25.8379 O   0  0  0  0  0  0  0  0  0  0  0  0
  -14.0588   14.7893  -26.6836 C   0  0  0  0  0  0  0  0  0  0  0  0
  -14.0392   13.4516  -26.8189 N   0  0  0  0  0  0  0  0  0  0  0  0
  -13.1654   12.8250  -27.6223 C   0  0  0  0  0  0  0  0  0  0  0  0
  -12.2738   13.6140  -28.3155 C   0  0  0  0  0  0  0  0  0  0  0  0
  -11.3791   13.0312  -29.1329 N   0  0  0  0  0  0  0  0  0  0  0  0
  -10.4890   13.7966  -29.8272 C   0  0  0  0  0  0  0  0  0  0  0  0
  -10.5230   15.1309  -29.6800 N   0  0  0  0  0  0  0  0  0  0  0  0
  -11.3696   15.8030  -28.8957 C   0  0  0  0  0  0  0  0  0  0  0  0
  -11.4475   17.1815  -28.7056 N   0  0  0  0  0  0  0  0  0  0  0  0
  -10.6828   18.1603  -29.3839 C   0  0  0  0  0  0  0  0  0  0  0  0
  -10.1183   19.2557  -28.7736 C   0  0  0  0  0  0  0  0  0  0  0  0
   -9.3953   20.1699  -29.5282 C   0  0  0  0  0  0  0  0  0  0  0  0
   -9.2202   20.0180  -30.8819 C   0  0  0  0  0  0  0  0  0  0  0  0
   -9.7676   18.9437  -31.5086 C   0  0  0  0  0  0  0  0  0  0  0  0
   -9.5890   18.6248  -33.3985 Br  0  0  0  0  0  0  0  0  0  0  0  0
  -10.4789   18.0451  -30.7653 C   0  0  0  0  0  0  0  0  0  0  0  0
  -12.2749   14.9872  -28.1930 C   0  0  0  0  0  0  0  0  0  0  0  0
  -13.1810   15.5422  -27.3683 N   0  0  0  0  0  0  0  0  0  0  0  0
  1  2  1  0
  2  3  1  0
  3  4  2  0
  4  5  1  0
  5  6  2  0
  6  7  1  0
  7  8  2  0
  8  9  1  0
  9 10  2  0
 10 11  1  0
 11 12  1  0
 12 13  2  0
 13 14  1  0
 14 15  2  0
 15 16  1  0
 16 17  1  0
 16 18  2  0
 10 19  1  0
 19 20  2  0
 20  3  1  0
 19  6  1  0
 18 12  1  0
M  END
$$$$
CHEMBL51854_diffdock_5
     RDKit          3D

 20 22  0  0  0  0  0  0  0  0999 V2000
  -15.2473   16.6548  -25.5822 C   0  0  0  0  0  0  0  0  0  0  0  0
  -15.2053   15.2601  -25.7309 O   0  0  0  0  0  0  0  0  0  0  0  0
  -14.2485   14.6753  -26.5650 C   0  0  0  0  0  0  0  0  0  0  0  0
  -14.2027   13.3415  -26.7299 N   0  0  0  0  0  0  0  0  0  0  0  0
  -13.2972   12.7480  -27.5233 C   0  0  0  0  0  0  0  0  0  0  0  0
  -12.4008   13.5672  -28.1740 C   0  0  0  0  0  0  0  0  0  0  0  0
  -11.4748   13.0180  -28.9797 N   0  0  0  0  0  0  0  0  0  0  0  0
  -10.5795   13.8136  -29.6321 C   0  0  0  0  0  0  0  0  0  0  0  0
  -10.6400   15.1435  -29.4557 N   0  0  0  0  0  0  0  0  0  0  0  0
  -11.5185   15.7835  -28.6797 C   0  0  0  0  0  0  0  0  0  0  0  0
  -11.6248   17.1557  -28.4605 N   0  0  0  0  0  0  0  0  0  0  0  0
  -10.8204   18.1584  -29.0527 C   0  0  0  0  0  0  0  0  0  0  0  0
  -10.2196   19.1774  -28.3515 C   0  0  0  0  0  0  0  0  0  0  0  0
   -9.4589   20.1237  -29.0252 C   0  0  0  0  0  0  0  0  0  0  0  0
   -9.2813   20.0785  -30.3863 C   0  0  0  0  0  0  0  0  0  0  0  0
   -9.8641   19.0812  -31.1020 C   0  0  0  0  0  0  0  0  0  0  0  0
   -9.6860   18.9142  -33.0114 Br  0  0  0  0  0  0  0  0  0  0  0  0
  -10.6126   18.1510  -30.4383 C   0  0  0  0  0  0  0  0  0  0  0  0
  -12.4284   14.9370  -28.0205 C   0  0  0  0  0  0  0  0  0  0  0  0
  -13.3656   15.4580  -27.2084 N   0  0  0  0  0  0  0  0  0  0  0  0
  1  2  1  0
  2  3  1  0
  3  4  2  0
  4  5  1  0
  5  6  2  0
  6  7  1  0
  7  8  2  0
  8  9  1  0
  9 10  2  0
 10 11  1  0
 11 12  1  0
 12 13  2  0
 13 14  1  0
 14 15  2  0
 15 16  1  0
 16 17  1  0
 16 18  2  0
 10 19  1  0
 19 20  2  0
 20  3  1  0
 19  6  1  0
 18 12  1  0
M  END
$$$$
CHEMBL51854_diffdock_6
     RDKit          3D

 20 22  0  0  0  0  0  0  0  0999 V2000
  -15.0433   16.0091  -25.9204 C   0  0  0  0  0  0  0  0  0  0  0  0
  -14.8525   14.6285  -26.0842 O   0  0  0  0  0  0  0  0  0  0  0  0
  -13.8094   14.1582  -26.8865 C   0  0  0  0  0  0  0  0  0  0  0  0
  -13.6330   12.8395  -27.0823 N   0  0  0  0  0  0  0  0  0  0  0  0
  -12.6419   12.3545  -27.8466 C   0  0  0  0  0  0  0  0  0  0  0  0
  -11.7970   13.2708  -28.4336 C   0  0  0  0  0  0  0  0  0  0  0  0
  -10.7890   12.8323  -29.2082 N   0  0  0  0  0  0  0  0  0  0  0  0
   -9.9429   13.7250  -29.7974 C   0  0  0  0  0  0  0  0  0  0  0  0
  -10.1340   15.0380  -29.5910 N   0  0  0  0  0  0  0  0  0  0  0  0
  -11.1019   15.5722  -28.8416 C   0  0  0  0  0  0  0  0  0  0  0  0
  -11.3443   16.9221  -28.5935 N   0  0  0  0  0  0  0  0  0  0  0  0
  -10.5972   18.0101  -29.1045 C   0  0  0  0  0  0  0  0  0  0  0  0
  -10.2461   19.1167  -28.3676 C   0  0  0  0  0  0  0  0  0  0  0  0
   -9.5222   20.1410  -28.9632 C   0  0  0  0  0  0  0  0  0  0  0  0
   -9.1377   20.0887  -30.2806 C   0  0  0  0  0  0  0  0  0  0  0  0
   -9.4718   19.0056  -31.0301 C   0  0  0  0  0  0  0  0  0  0  0  0
   -8.9886   18.8200  -32.8841 Br  0  0  0  0  0  0  0  0  0  0  0  0
  -10.1843   17.9986  -30.4434 C   0  0  0  0  0  0  0  0  0  0  0  0
  -11.9581   14.6273  -28.2474 C   0  0  0  0  0  0  0  0  0  0  0  0
  -12.9748   15.0366  -27.4677 N   0  0  0  0  0  0  0  0  0  0  0  0
  1  2  1  0
  2  3  1  0
  3  4  2  0
  4  5  1  0
  5  6  2  0
  6  7  1  0
  7  8  2  0
  8  9  1  0
  9 10  2  0
 10 11  1  0
 11 12  1  0
 12 13  2  0
 13 14  1  0
 14 15  2  0
 15 16  1  0
 16 17  1  0
 16 18  2  0
 10 19  1  0
 19 20  2  0
 20  3  1  0
 19  6  1  0
 18 12  1  0
M  END
$$$$
CHEMBL51854_diffdock_7
     RDKit          3D

 20 22  0  0  0  0  0  0  0  0999 V2000
  -15.4278   16.8071  -26.2194 C   0  0  0  0  0  0  0  0  0  0  0  0
  -15.3332   15.4119  -26.3362 O   0  0  0  0  0  0  0  0  0  0  0  0
  -14.3004   14.8424  -27.0859 C   0  0  0  0  0  0  0  0  0  0  0  0
  -14.2008   13.5079  -27.2174 N   0  0  0  0  0  0  0  0  0  0  0  0
  -13.2217   12.9288  -27.9300 C   0  0  0  0  0  0  0  0  0  0  0  0
  -12.3065   13.7639  -28.5323 C   0  0  0  0  0  0  0  0  0  0  0  0
  -11.3075   13.2296  -29.2567 N   0  0  0  0  0  0  0  0  0  0  0  0
  -10.3924   14.0411  -29.8603 C   0  0  0  0  0  0  0  0  0  0  0  0
  -10.5073   15.3715  -29.7184 N   0  0  0  0  0  0  0  0  0  0  0  0
  -11.4597   15.9975  -29.0222 C   0  0  0  0  0  0  0  0  0  0  0  0
  -11.6246   17.3697  -28.8419 N   0  0  0  0  0  0  0  0  0  0  0  0
  -10.7973   18.3854  -29.3774 C   0  0  0  0  0  0  0  0  0  0  0  0
  -10.4633   19.5392  -28.7079 C   0  0  0  0  0  0  0  0  0  0  0  0
   -9.6548   20.4851  -29.3240 C   0  0  0  0  0  0  0  0  0  0  0  0
   -9.1687   20.3079  -30.5962 C   0  0  0  0  0  0  0  0  0  0  0  0
   -9.4838   19.1759  -31.2788 C   0  0  0  0  0  0  0  0  0  0  0  0
   -8.8617   18.8170  -33.0647 Br  0  0  0  0  0  0  0  0  0  0  0  0
  -10.2795   18.2463  -30.6719 C   0  0  0  0  0  0  0  0  0  0  0  0
  -12.3882   15.1349  -28.4117 C   0  0  0  0  0  0  0  0  0  0  0  0
  -13.3979   15.6408  -27.6811 N   0  0  0  0  0  0  0  0  0  0  0  0
  1  2  1  0
  2  3  1  0
  3  4  2  0
  4  5  1  0
  5  6  2  0
  6  7  1  0
  7  8  2  0
  8  9  1  0
  9 10  2  0
 10 11  1  0
 11 12  1  0
 12 13  2  0
 13 14  1  0
 14 15  2  0
 15 16  1  0
 16 17  1  0
 16 18  2  0
 10 19  1  0
 19 20  2  0
 20  3  1  0
 19  6  1  0
 18 12  1  0
M  END
$$$$
CHEMBL51854_diffdock_8
     RDKit          3D

 20 22  0  0  0  0  0  0  0  0999 V2000
  -15.1171   16.7512  -25.7558 C   0  0  0  0  0  0  0  0  0  0  0  0
  -15.1045   15.3744  -26.0269 O   0  0  0  0  0  0  0  0  0  0  0  0
  -14.1485   14.8427  -26.8965 C   0  0  0  0  0  0  0  0  0  0  0  0
  -14.1447   13.5319  -27.1964 N   0  0  0  0  0  0  0  0  0  0  0  0
  -13.2412   12.9891  -28.0275 C   0  0  0  0  0  0  0  0  0  0  0  0
  -12.3015   13.8367  -28.5721 C   0  0  0  0  0  0  0  0  0  0  0  0
  -11.3757   13.3387  -29.4105 N   0  0  0  0  0  0  0  0  0  0  0  0
  -10.4378   14.1630  -29.9592 C   0  0  0  0  0  0  0  0  0  0  0  0
  -10.4566   15.4693  -29.6487 N   0  0  0  0  0  0  0  0  0  0  0  0
  -11.3312   16.0589  -28.8295 C   0  0  0  0  0  0  0  0  0  0  0  0
  -11.3953   17.4048  -28.4730 N   0  0  0  0  0  0  0  0  0  0  0  0
  -10.5486   18.4338  -28.9498 C   0  0  0  0  0  0  0  0  0  0  0  0
  -10.1685   19.5253  -28.2046 C   0  0  0  0  0  0  0  0  0  0  0  0
   -9.3443   20.4911  -28.7664 C   0  0  0  0  0  0  0  0  0  0  0  0
   -8.8873   20.3949  -30.0580 C   0  0  0  0  0  0  0  0  0  0  0  0
   -9.2482   19.3257  -30.8150 C   0  0  0  0  0  0  0  0  0  0  0  0
   -8.6704   19.0824  -32.6349 Br  0  0  0  0  0  0  0  0  0  0  0  0
  -10.0595   18.3763  -30.2614 C   0  0  0  0  0  0  0  0  0  0  0  0
  -12.2855   15.1839  -28.2795 C   0  0  0  0  0  0  0  0  0  0  0  0
  -13.2236   15.6537  -27.4379 N   0  0  0  0  0  0  0  0  0  0  0  0
  1  2  1  0
  2  3  1  0
  3  4  2  0
  4  5  1  0
  5  6  2  0
  6  7  1  0
  7  8  2  0
  8  9  1  0
  9 10  2  0
 10 11  1  0
 11 12  1  0
 12 13  2  0
 13 14  1  0
 14 15  2  0
 15 16  1  0
 16 17  1  0
 16 18  2  0
 10 19  1  0
 19 20  2  0
 20  3  1  0
 19  6  1  0
 18 12  1  0
M  END
$$$$
CHEMBL51854_diffdock_9
     RDKit          3D

 20 22  0  0  0  0  0  0  0  0999 V2000
  -15.3293   16.7122  -25.7854 C   0  0  0  0  0  0  0  0  0  0  0  0
  -15.2327   15.3276  -25.9919 O   0  0  0  0  0  0  0  0  0  0  0  0
  -14.1950   14.8085  -26.7708 C   0  0  0  0  0  0  0  0  0  0  0  0
  -14.0986   13.4862  -26.9953 N   0  0  0  0  0  0  0  0  0  0  0  0
  -13.1150   12.9550  -27.7383 C   0  0  0  0  0  0  0  0  0  0  0  0
  -12.1917   13.8270  -28.2721 C   0  0  0  0  0  0  0  0  0  0  0  0
  -11.1879   13.3412  -29.0237 N   0  0  0  0  0  0  0  0  0  0  0  0
  -10.2648   14.1898  -29.5603 C   0  0  0  0  0  0  0  0  0  0  0  0
  -10.3766   15.5072  -29.3258 N   0  0  0  0  0  0  0  0  0  0  0  0
  -11.3332   16.0863  -28.5956 C   0  0  0  0  0  0  0  0  0  0  0  0
  -11.4953   17.4429  -28.3203 N   0  0  0  0  0  0  0  0  0  0  0  0
  -10.6565   18.4901  -28.7707 C   0  0  0  0  0  0  0  0  0  0  0  0
  -10.5475   19.7112  -28.1479 C   0  0  0  0  0  0  0  0  0  0  0  0
   -9.7061   20.6820  -28.6748 C   0  0  0  0  0  0  0  0  0  0  0  0
   -8.9672   20.4640  -29.8118 C   0  0  0  0  0  0  0  0  0  0  0  0
   -9.0568   19.2653  -30.4456 C   0  0  0  0  0  0  0  0  0  0  0  0
   -8.0703   18.8444  -32.0441 Br  0  0  0  0  0  0  0  0  0  0  0  0
   -9.8852   18.3112  -29.9266 C   0  0  0  0  0  0  0  0  0  0  0  0
  -12.2700   15.1863  -28.0558 C   0  0  0  0  0  0  0  0  0  0  0  0
  -13.2846   15.6433  -27.3002 N   0  0  0  0  0  0  0  0  0  0  0  0
  1  2  1  0
  2  3  1  0
  3  4  2  0
  4  5  1  0
  5  6  2  0
  6  7  1  0
  7  8  2  0
  8  9  1  0
  9 10  2  0
 10 11  1  0
 11 12  1  0
 12 13  2  0
 13 14  1  0
 14 15  2  0
 15 16  1  0
 16 17  1  0
 16 18  2  0
 10 19  1  0
 19 20  2  0
 20  3  1  0
 19  6  1  0
 18 12  1  0
M  END
$$$$
CHEMBL51854_diffdock_10
     RDKit          3D

 20 22  0  0  0  0  0  0  0  0999 V2000
  892.4004 2291.4290 3109.1611 C   0  0  0  0  0  0  0  0  0  0  0  0
  893.4276 2291.2029 3108.2319 O   0  0  0  0  0  0  0  0  0  0  0  0
  893.9572 2292.2703 3107.5020 C   0  0  0  0  0  0  0  0  0  0  0  0
  894.4267 2292.0867 3106.2556 N   0  0  0  0  0  0  0  0  0  0  0  0
  894.9414 2293.0867 3105.5271 C   0  0  0  0  0  0  0  0  0  0  0  0
  894.9746 2294.3342 3106.1123 C   0  0  0  0  0  0  0  0  0  0  0  0
  895.4818 2295.3706 3105.4216 N   0  0  0  0  0  0  0  0  0  0  0  0
  895.5212 2296.6125 3105.9839 C   0  0  0  0  0  0  0  0  0  0  0  0
  895.0495 2296.7788 3107.2295 N   0  0  0  0  0  0  0  0  0  0  0  0
  894.5276 2295.8167 3107.9961 C   0  0  0  0  0  0  0  0  0  0  0  0
  894.0258 2295.9336 3109.2905 N   0  0  0  0  0  0  0  0  0  0  0  0
  892.6797 2295.7437 3109.6838 C   0  0  0  0  0  0  0  0  0  0  0  0
  892.1887 2296.0554 3110.9302 C   0  0  0  0  0  0  0  0  0  0  0  0
  890.8531 2295.8176 3111.2229 C   0  0  0  0  0  0  0  0  0  0  0  0
  889.9910 2295.2722 3110.3042 C   0  0  0  0  0  0  0  0  0  0  0  0
  890.4518 2294.9551 3109.0649 C   0  0  0  0  0  0  0  0  0  0  0  0
  889.3392 2294.1882 3107.6936 Br  0  0  0  0  0  0  0  0  0  0  0  0
  891.7664 2295.1897 3108.7771 C   0  0  0  0  0  0  0  0  0  0  0  0
  894.4997 2294.5486 3107.3879 C   0  0  0  0  0  0  0  0  0  0  0  0
  893.9980 2293.4939 3108.0557 N   0  0  0  0  0  0  0  0  0  0  0  0
  1  2  1  0
  2  3  1  0
  3  4  2  0
  4  5  1  0
  5  6  2  0
  6  7  1  0
  7  8  2  0
  8  9  1  0
  9 10  2  0
 10 11  1  0
 11 12  1  0
 12 13  2  0
 13 14  1  0
 14 15  2  0
 15 16  1  0
 16 17  1  0
 16 18  2  0
 10 19  1  0
 19 20  2  0
 20  3  1  0
 19  6  1  0
 18 12  1  0
M  END
$$$$
CHEMBL1090364_diffdock_1
     RDKit          3D

 41 47  0  0  0  0  0  0  0  0999 V2000
   -6.6887   19.7417  -32.7829 O   0  0  0  0  0  0  0  0  0  0  0  0
   -6.2873   19.8600  -31.6072 C   0  0  0  0  0  0  0  0  0  0  0  0
   -4.9883   20.5540  -31.3317 C   0  0  0  0  0  0  0  0  0  0  0  0
   -3.8941   19.5940  -31.1855 C   0  0  0  0  0  0  0  0  0  0  0  0
   -4.1576   18.2897  -31.6427 C   0  0  0  0  0  0  0  0  0  0  0  0
   -3.1651   17.3246  -31.5506 C   0  0  0  0  0  0  0  0  0  0  0  0
   -1.9219   17.6193  -31.0189 C   0  0  0  0  0  0  0  0  0  0  0  0
   -1.6804   18.8887  -30.5796 C   0  0  0  0  0  0  0  0  0  0  0  0
   -2.6628   19.8489  -30.6681 C   0  0  0  0  0  0  0  0  0  0  0  0
   -7.0950   19.3182  -30.5705 N   0  0  0  0  0  0  0  0  0  0  0  0
   -8.3639   18.7317  -30.7707 C   0  0  0  0  0  0  0  0  0  0  0  0
   -8.6927   18.1222  -31.9838 C   0  0  0  0  0  0  0  0  0  0  0  0
   -9.9046   17.4924  -32.1831 C   0  0  0  0  0  0  0  0  0  0  0  0
  -10.7957   17.4845  -31.1262 C   0  0  0  0  0  0  0  0  0  0  0  0
  -10.5064   18.0833  -29.8924 C   0  0  0  0  0  0  0  0  0  0  0  0
  -11.4847   17.9821  -28.8146 C   0  0  0  0  0  0  0  0  0  0  0  0
  -11.9403   19.0874  -28.1500 N   0  0  0  0  0  0  0  0  0  0  0  0
  -12.8221   18.6670  -27.1895 C   0  0  0  0  0  0  0  0  0  0  0  0
  -13.8676   19.1457  -25.9231 S   0  0  0  0  0  0  0  0  0  0  0  0
  -14.4325   17.6055  -25.4700 C   0  0  0  0  0  0  0  0  0  0  0  0
  -13.7705   16.7833  -26.3400 C   0  0  0  0  0  0  0  0  0  0  0  0
  -12.9513   17.3458  -27.2117 N   0  0  0  0  0  0  0  0  0  0  0  0
  -12.1161   16.9229  -28.2263 C   0  0  0  0  0  0  0  0  0  0  0  0
  -11.8962   15.5371  -28.6740 C   0  0  0  0  0  0  0  0  0  0  0  0
  -10.8356   15.2614  -29.5065 C   0  0  0  0  0  0  0  0  0  0  0  0
  -10.6009   13.9789  -29.9542 C   0  0  0  0  0  0  0  0  0  0  0  0
  -11.4613   13.0089  -29.5369 N   0  0  0  0  0  0  0  0  0  0  0  0
  -12.4877   13.2614  -28.7331 C   0  0  0  0  0  0  0  0  0  0  0  0
  -13.3610   12.2273  -28.3237 N   0  0  0  0  0  0  0  0  0  0  0  0
  -14.3175   12.4290  -27.2982 C   0  0  0  0  0  0  0  0  0  0  0  0
  -14.7547   11.4051  -26.4925 C   0  0  0  0  0  0  0  0  0  0  0  0
  -15.6983   11.6265  -25.5160 C   0  0  0  0  0  0  0  0  0  0  0  0
  -16.2153   12.9002  -25.3416 C   0  0  0  0  0  0  0  0  0  0  0  0
  -15.7892   13.9621  -26.1456 C   0  0  0  0  0  0  0  0  0  0  0  0
  -14.8479   13.7087  -27.1096 C   0  0  0  0  0  0  0  0  0  0  0  0
  -16.3950   15.2860  -25.8802 C   0  0  0  0  0  0  0  0  0  0  0  0
  -16.3780   15.4648  -24.3702 C   0  0  0  0  0  0  0  0  0  0  0  0
  -17.1020   14.4580  -23.6604 N   0  0  0  0  0  4  0  0  0  0  0  0
  -17.2453   13.2045  -24.3232 C   0  0  0  0  0  0  0  0  0  0  0  0
  -12.6980   14.5314  -28.3058 N   0  0  0  0  0  0  0  0  0  0  0  0
   -9.2864   18.7024  -29.7349 C   0  0  0  0  0  0  0  0  0  0  0  0
  1  2  2  0
  2  3  1  0
  3  4  1  0
  4  5  2  0
  5  6  1  0
  6  7  2  0
  7  8  1  0
  8  9  2  0
  2 10  1  0
 10 11  1  0
 11 12  2  0
 12 13  1  0
 13 14  2  0
 14 15  1  0
 15 16  1  0
 16 17  1  0
 17 18  2  0
 18 19  1  0
 19 20  1  0
 20 21  2  0
 21 22  1  0
 22 23  1  0
 23 24  1  0
 24 25  2  0
 25 26  1  0
 26 27  2  0
 27 28  1  0
 28 29  1  0
 29 30  1  0
 30 31  2  0
 31 32  1  0
 32 33  2  0
 33 34  1  0
 34 35  2  0
 34 36  1  0
 36 37  1  0
 37 38  1  0
 38 39  1  0
 28 40  2  0
 15 41  2  0
  9  4  1  0
 41 11  1  0
 23 16  2  0
 40 24  1  0
 22 18  1  0
 35 30  1  0
 39 33  1  0
M  CHG  1  38   1
M  END
$$$$
CHEMBL1090364_diffdock_2
     RDKit          3D

 41 47  0  0  0  0  0  0  0  0999 V2000
   -6.3621   19.4921  -32.5830 O   0  0  0  0  0  0  0  0  0  0  0  0
   -6.0157   19.0403  -31.4724 C   0  0  0  0  0  0  0  0  0  0  0  0
   -4.6117   18.5571  -31.2718 C   0  0  0  0  0  0  0  0  0  0  0  0
   -3.6748   19.6760  -31.1697 C   0  0  0  0  0  0  0  0  0  0  0  0
   -2.6370   19.5231  -30.2319 C   0  0  0  0  0  0  0  0  0  0  0  0
   -1.6998   20.5355  -30.0853 C   0  0  0  0  0  0  0  0  0  0  0  0
   -1.7650   21.6917  -30.8430 C   0  0  0  0  0  0  0  0  0  0  0  0
   -2.7769   21.8262  -31.7488 C   0  0  0  0  0  0  0  0  0  0  0  0
   -3.7095   20.8247  -31.8965 C   0  0  0  0  0  0  0  0  0  0  0  0
   -6.9883   19.0029  -30.4364 N   0  0  0  0  0  0  0  0  0  0  0  0
   -8.3467   18.6682  -30.6280 C   0  0  0  0  0  0  0  0  0  0  0  0
   -8.8260   18.2929  -31.8853 C   0  0  0  0  0  0  0  0  0  0  0  0
  -10.1358   17.9064  -32.0852 C   0  0  0  0  0  0  0  0  0  0  0  0
  -10.9704   17.9026  -30.9830 C   0  0  0  0  0  0  0  0  0  0  0  0
  -10.5310   18.2711  -29.7042 C   0  0  0  0  0  0  0  0  0  0  0  0
  -11.4666   18.1879  -28.5876 C   0  0  0  0  0  0  0  0  0  0  0  0
  -11.8660   19.3001  -27.8989 N   0  0  0  0  0  0  0  0  0  0  0  0
  -12.7183   18.8961  -26.9052 C   0  0  0  0  0  0  0  0  0  0  0  0
  -13.6985   19.3931  -25.5944 S   0  0  0  0  0  0  0  0  0  0  0  0
  -14.2838   17.8649  -25.1268 C   0  0  0  0  0  0  0  0  0  0  0  0
  -13.6793   17.0318  -26.0277 C   0  0  0  0  0  0  0  0  0  0  0  0
  -12.8822   17.5788  -26.9293 N   0  0  0  0  0  0  0  0  0  0  0  0
  -12.1005   17.1413  -27.9797 C   0  0  0  0  0  0  0  0  0  0  0  0
  -11.9347   15.7533  -28.4436 C   0  0  0  0  0  0  0  0  0  0  0  0
  -10.8970   15.4500  -29.2950 C   0  0  0  0  0  0  0  0  0  0  0  0
  -10.7130   14.1646  -29.7581 C   0  0  0  0  0  0  0  0  0  0  0  0
  -11.5995   13.2203  -29.3365 N   0  0  0  0  0  0  0  0  0  0  0  0
  -12.6043   13.4997  -28.5144 C   0  0  0  0  0  0  0  0  0  0  0  0
  -13.5060   12.4918  -28.1011 N   0  0  0  0  0  0  0  0  0  0  0  0
  -14.4034   12.6979  -27.0242 C   0  0  0  0  0  0  0  0  0  0  0  0
  -14.7596   13.9548  -26.5978 C   0  0  0  0  0  0  0  0  0  0  0  0
  -15.6193   14.1250  -25.5372 C   0  0  0  0  0  0  0  0  0  0  0  0
  -16.1341   13.0135  -24.8896 C   0  0  0  0  0  0  0  0  0  0  0  0
  -15.7906   11.7220  -25.3014 C   0  0  0  0  0  0  0  0  0  0  0  0
  -14.9316   11.5861  -26.3612 C   0  0  0  0  0  0  0  0  0  0  0  0
  -16.3951   10.5985  -24.5514 C   0  0  0  0  0  0  0  0  0  0  0  0
  -17.8674   10.9420  -24.3875 C   0  0  0  0  0  0  0  0  0  0  0  0
  -18.1014   12.1646  -23.6860 N   0  0  0  0  0  4  0  0  0  0  0  0
  -17.0489   13.1244  -23.7314 C   0  0  0  0  0  0  0  0  0  0  0  0
  -12.7647   14.7719  -28.0722 N   0  0  0  0  0  0  0  0  0  0  0  0
   -9.2168   18.6516  -29.5475 C   0  0  0  0  0  0  0  0  0  0  0  0
  1  2  2  0
  2  3  1  0
  3  4  1  0
  4  5  2  0
  5  6  1  0
  6  7  2  0
  7  8  1  0
  8  9  2  0
  2 10  1  0
 10 11  1  0
 11 12  2  0
 12 13  1  0
 13 14  2  0
 14 15  1  0
 15 16  1  0
 16 17  1  0
 17 18  2  0
 18 19  1  0
 19 20  1  0
 20 21  2  0
 21 22  1  0
 22 23  1  0
 23 24  1  0
 24 25  2  0
 25 26  1  0
 26 27  2  0
 27 28  1  0
 28 29  1  0
 29 30  1  0
 30 31  2  0
 31 32  1  0
 32 33  2  0
 33 34  1  0
 34 35  2  0
 34 36  1  0
 36 37  1  0
 37 38  1  0
 38 39  1  0
 28 40  2  0
 15 41  2  0
  9  4  1  0
 41 11  1  0
 23 16  2  0
 40 24  1  0
 22 18  1  0
 35 30  1  0
 39 33  1  0
M  CHG  1  38   1
M  END
$$$$
CHEMBL1090364_diffdock_3
     RDKit          3D

 41 47  0  0  0  0  0  0  0  0999 V2000
   -6.5895   19.7046  -32.9129 O   0  0  0  0  0  0  0  0  0  0  0  0
   -6.3201   20.1193  -31.7672 C   0  0  0  0  0  0  0  0  0  0  0  0
   -5.0369   20.8541  -31.5255 C   0  0  0  0  0  0  0  0  0  0  0  0
   -4.0880   20.0324  -30.7740 C   0  0  0  0  0  0  0  0  0  0  0  0
   -4.0544   18.6678  -31.1150 C   0  0  0  0  0  0  0  0  0  0  0  0
   -3.1710   17.8249  -30.4562 C   0  0  0  0  0  0  0  0  0  0  0  0
   -2.3224   18.2996  -29.4714 C   0  0  0  0  0  0  0  0  0  0  0  0
   -2.3659   19.6255  -29.1512 C   0  0  0  0  0  0  0  0  0  0  0  0
   -3.2417   20.4649  -29.8016 C   0  0  0  0  0  0  0  0  0  0  0  0
   -7.2588   19.8667  -30.7300 N   0  0  0  0  0  0  0  0  0  0  0  0
   -8.4619   19.1471  -30.8999 C   0  0  0  0  0  0  0  0  0  0  0  0
   -8.7497   18.4980  -32.1029 C   0  0  0  0  0  0  0  0  0  0  0  0
   -9.8915   17.7415  -32.2729 C   0  0  0  0  0  0  0  0  0  0  0  0
  -10.7541   17.6458  -31.1967 C   0  0  0  0  0  0  0  0  0  0  0  0
  -10.5040   18.2802  -29.9722 C   0  0  0  0  0  0  0  0  0  0  0  0
  -11.4428   18.0826  -28.8727 C   0  0  0  0  0  0  0  0  0  0  0  0
  -12.0380   19.1369  -28.2363 N   0  0  0  0  0  0  0  0  0  0  0  0
  -12.8385   18.6326  -27.2455 C   0  0  0  0  0  0  0  0  0  0  0  0
  -13.9218   19.0064  -25.9755 S   0  0  0  0  0  0  0  0  0  0  0  0
  -14.2601   17.4198  -25.4609 C   0  0  0  0  0  0  0  0  0  0  0  0
  -13.5029   16.6670  -26.3159 C   0  0  0  0  0  0  0  0  0  0  0  0
  -12.7828   17.3064  -27.2215 N   0  0  0  0  0  0  0  0  0  0  0  0
  -11.9119   16.9676  -28.2376 C   0  0  0  0  0  0  0  0  0  0  0  0
  -11.5078   15.6108  -28.6435 C   0  0  0  0  0  0  0  0  0  0  0  0
  -10.3727   15.4483  -29.4044 C   0  0  0  0  0  0  0  0  0  0  0  0
   -9.9657   14.1956  -29.8114 C   0  0  0  0  0  0  0  0  0  0  0  0
  -10.7343   13.1385  -29.4280 N   0  0  0  0  0  0  0  0  0  0  0  0
  -11.8312   13.2816  -28.6932 C   0  0  0  0  0  0  0  0  0  0  0  0
  -12.6048   12.1591  -28.3172 N   0  0  0  0  0  0  0  0  0  0  0  0
  -13.6349   12.2608  -27.3498 C   0  0  0  0  0  0  0  0  0  0  0  0
  -14.1517   13.4713  -26.9544 C   0  0  0  0  0  0  0  0  0  0  0  0
  -15.1395   13.5410  -25.9992 C   0  0  0  0  0  0  0  0  0  0  0  0
  -15.6208   12.3742  -25.4276 C   0  0  0  0  0  0  0  0  0  0  0  0
  -15.1151   11.1279  -25.8102 C   0  0  0  0  0  0  0  0  0  0  0  0
  -14.1314   11.0923  -26.7644 C   0  0  0  0  0  0  0  0  0  0  0  0
  -15.6959    9.9389  -25.1474 C   0  0  0  0  0  0  0  0  0  0  0  0
  -17.2026   10.1449  -25.1521 C   0  0  0  0  0  0  0  0  0  0  0  0
  -17.6269   11.3264  -24.4697 N   0  0  0  0  0  4  0  0  0  0  0  0
  -16.6688   12.3778  -24.3824 C   0  0  0  0  0  0  0  0  0  0  0  0
  -12.2112   14.5243  -28.3048 N   0  0  0  0  0  0  0  0  0  0  0  0
   -9.3538   19.0267  -29.8440 C   0  0  0  0  0  0  0  0  0  0  0  0
  1  2  2  0
  2  3  1  0
  3  4  1  0
  4  5  2  0
  5  6  1  0
  6  7  2  0
  7  8  1  0
  8  9  2  0
  2 10  1  0
 10 11  1  0
 11 12  2  0
 12 13  1  0
 13 14  2  0
 14 15  1  0
 15 16  1  0
 16 17  1  0
 17 18  2  0
 18 19  1  0
 19 20  1  0
 20 21  2  0
 21 22  1  0
 22 23  1  0
 23 24  1  0
 24 25  2  0
 25 26  1  0
 26 27  2  0
 27 28  1  0
 28 29  1  0
 29 30  1  0
 30 31  2  0
 31 32  1  0
 32 33  2  0
 33 34  1  0
 34 35  2  0
 34 36  1  0
 36 37  1  0
 37 38  1  0
 38 39  1  0
 28 40  2  0
 15 41  2  0
  9  4  1  0
 41 11  1  0
 23 16  2  0
 40 24  1  0
 22 18  1  0
 35 30  1  0
 39 33  1  0
M  CHG  1  38   1
M  END
$$$$
CHEMBL1090364_diffdock_4
     RDKit          3D

 41 47  0  0  0  0  0  0  0  0999 V2000
   -6.5715   19.5679  -32.9751 O   0  0  0  0  0  0  0  0  0  0  0  0
   -6.3496   20.0406  -31.8416 C   0  0  0  0  0  0  0  0  0  0  0  0
   -5.0595   20.7536  -31.5733 C   0  0  0  0  0  0  0  0  0  0  0  0
   -4.0013   19.8145  -31.2011 C   0  0  0  0  0  0  0  0  0  0  0  0
   -3.0069   20.3196  -30.3433 C   0  0  0  0  0  0  0  0  0  0  0  0
   -1.9760   19.4863  -29.9341 C   0  0  0  0  0  0  0  0  0  0  0  0
   -1.9065   18.1688  -30.3520 C   0  0  0  0  0  0  0  0  0  0  0  0
   -2.8781   17.6924  -31.1837 C   0  0  0  0  0  0  0  0  0  0  0  0
   -3.9020   18.5162  -31.5931 C   0  0  0  0  0  0  0  0  0  0  0  0
   -7.3479   19.8732  -30.8436 N   0  0  0  0  0  0  0  0  0  0  0  0
   -8.5670   19.1882  -31.0407 C   0  0  0  0  0  0  0  0  0  0  0  0
   -8.7980   18.4478  -32.2024 C   0  0  0  0  0  0  0  0  0  0  0  0
   -9.9576   17.7237  -32.3919 C   0  0  0  0  0  0  0  0  0  0  0  0
  -10.8973   17.7560  -31.3784 C   0  0  0  0  0  0  0  0  0  0  0  0
  -10.7061   18.4852  -30.1968 C   0  0  0  0  0  0  0  0  0  0  0  0
  -11.7280   18.4210  -29.1572 C   0  0  0  0  0  0  0  0  0  0  0  0
  -12.2891   19.5510  -28.6289 N   0  0  0  0  0  0  0  0  0  0  0  0
  -13.1877   19.1652  -27.6693 C   0  0  0  0  0  0  0  0  0  0  0  0
  -14.3247   19.6904  -26.5043 S   0  0  0  0  0  0  0  0  0  0  0  0
  -14.8071   18.1660  -25.9213 C   0  0  0  0  0  0  0  0  0  0  0  0
  -14.0490   17.3115  -26.6738 C   0  0  0  0  0  0  0  0  0  0  0  0
  -13.2268   17.8425  -27.5623 N   0  0  0  0  0  0  0  0  0  0  0  0
  -12.3157   17.3824  -28.4918 C   0  0  0  0  0  0  0  0  0  0  0  0
  -11.9813   15.9786  -28.7862 C   0  0  0  0  0  0  0  0  0  0  0  0
  -10.8548   15.6980  -29.5250 C   0  0  0  0  0  0  0  0  0  0  0  0
  -10.5123   14.3977  -29.8289 C   0  0  0  0  0  0  0  0  0  0  0  0
  -11.3350   13.4153  -29.3671 N   0  0  0  0  0  0  0  0  0  0  0  0
  -12.4244   13.6725  -28.6524 C   0  0  0  0  0  0  0  0  0  0  0  0
  -13.2555   12.6248  -28.1929 N   0  0  0  0  0  0  0  0  0  0  0  0
  -14.3723   12.8778  -27.3586 C   0  0  0  0  0  0  0  0  0  0  0  0
  -14.8602   14.1458  -27.1522 C   0  0  0  0  0  0  0  0  0  0  0  0
  -15.9354   14.3639  -26.3220 C   0  0  0  0  0  0  0  0  0  0  0  0
  -16.5357   13.2898  -25.6849 C   0  0  0  0  0  0  0  0  0  0  0  0
  -16.0621   11.9880  -25.8761 C   0  0  0  0  0  0  0  0  0  0  0  0
  -14.9891   11.8041  -26.7094 C   0  0  0  0  0  0  0  0  0  0  0  0
  -16.7717   10.9064  -25.1573 C   0  0  0  0  0  0  0  0  0  0  0  0
  -18.2565   11.1751  -25.3464 C   0  0  0  0  0  0  0  0  0  0  0  0
  -18.6836   12.4424  -24.8432 N   0  0  0  0  0  4  0  0  0  0  0  0
  -17.6836   13.4548  -24.7652 C   0  0  0  0  0  0  0  0  0  0  0  0
  -12.7405   14.9601  -28.3663 N   0  0  0  0  0  0  0  0  0  0  0  0
   -9.5357   19.1952  -30.0474 C   0  0  0  0  0  0  0  0  0  0  0  0
  1  2  2  0
  2  3  1  0
  3  4  1  0
  4  5  2  0
  5  6  1  0
  6  7  2  0
  7  8  1  0
  8  9  2  0
  2 10  1  0
 10 11  1  0
 11 12  2  0
 12 13  1  0
 13 14  2  0
 14 15  1  0
 15 16  1  0
 16 17  1  0
 17 18  2  0
 18 19  1  0
 19 20  1  0
 20 21  2  0
 21 22  1  0
 22 23  1  0
 23 24  1  0
 24 25  2  0
 25 26  1  0
 26 27  2  0
 27 28  1  0
 28 29  1  0
 29 30  1  0
 30 31  2  0
 31 32  1  0
 32 33  2  0
 33 34  1  0
 34 35  2  0
 34 36  1  0
 36 37  1  0
 37 38  1  0
 38 39  1  0
 28 40  2  0
 15 41  2  0
  9  4  1  0
 41 11  1  0
 23 16  2  0
 40 24  1  0
 22 18  1  0
 35 30  1  0
 39 33  1  0
M  CHG  1  38   1
M  END
$$$$
CHEMBL1090364_diffdock_5
     RDKit          3D

 41 47  0  0  0  0  0  0  0  0999 V2000
   -5.8161   19.5139  -31.6812 O   0  0  0  0  0  0  0  0  0  0  0  0
   -6.6801   20.3668  -31.9700 C   0  0  0  0  0  0  0  0  0  0  0  0
   -6.3201   21.5176  -32.8594 C   0  0  0  0  0  0  0  0  0  0  0  0
   -6.5039   22.7965  -32.1733 C   0  0  0  0  0  0  0  0  0  0  0  0
   -5.3436   23.5746  -32.0054 C   0  0  0  0  0  0  0  0  0  0  0  0
   -5.4379   24.8071  -31.3755 C   0  0  0  0  0  0  0  0  0  0  0  0
   -6.6498   25.2865  -30.9099 C   0  0  0  0  0  0  0  0  0  0  0  0
   -7.7669   24.5211  -31.0799 C   0  0  0  0  0  0  0  0  0  0  0  0
   -7.6775   23.2971  -31.7033 C   0  0  0  0  0  0  0  0  0  0  0  0
   -7.9842   20.2029  -31.4285 N   0  0  0  0  0  0  0  0  0  0  0  0
   -8.3869   19.1074  -30.6337 C   0  0  0  0  0  0  0  0  0  0  0  0
   -7.5216   18.0386  -30.3881 C   0  0  0  0  0  0  0  0  0  0  0  0
   -7.8720   16.9850  -29.5683 C   0  0  0  0  0  0  0  0  0  0  0  0
   -9.1269   17.0232  -28.9893 C   0  0  0  0  0  0  0  0  0  0  0  0
  -10.0259   18.0759  -29.2083 C   0  0  0  0  0  0  0  0  0  0  0  0
  -11.3098   18.0604  -28.5151 C   0  0  0  0  0  0  0  0  0  0  0  0
  -11.8781   19.2049  -28.0272 N   0  0  0  0  0  0  0  0  0  0  0  0
  -13.0555   18.8625  -27.4162 C   0  0  0  0  0  0  0  0  0  0  0  0
  -14.4230   19.4329  -26.5614 S   0  0  0  0  0  0  0  0  0  0  0  0
  -15.2155   17.9437  -26.3358 C   0  0  0  0  0  0  0  0  0  0  0  0
  -14.3646   17.0639  -26.9465 C   0  0  0  0  0  0  0  0  0  0  0  0
  -13.2652   17.5538  -27.4931 N   0  0  0  0  0  0  0  0  0  0  0  0
  -12.1748   17.0576  -28.1791 C   0  0  0  0  0  0  0  0  0  0  0  0
  -11.9200   15.6534  -28.5430 C   0  0  0  0  0  0  0  0  0  0  0  0
  -10.9176   15.3641  -29.4403 C   0  0  0  0  0  0  0  0  0  0  0  0
  -10.6535   14.0634  -29.8128 C   0  0  0  0  0  0  0  0  0  0  0  0
  -11.4255   13.0895  -29.2554 N   0  0  0  0  0  0  0  0  0  0  0  0
  -12.3952   13.3551  -28.3878 C   0  0  0  0  0  0  0  0  0  0  0  0
  -13.1775   12.3161  -27.8326 N   0  0  0  0  0  0  0  0  0  0  0  0
  -14.2021   12.5833  -26.8913 C   0  0  0  0  0  0  0  0  0  0  0  0
  -14.6330   13.8597  -26.6200 C   0  0  0  0  0  0  0  0  0  0  0  0
  -15.6176   14.0910  -25.6873 C   0  0  0  0  0  0  0  0  0  0  0  0
  -16.1836   13.0218  -25.0117 C   0  0  0  0  0  0  0  0  0  0  0  0
  -15.7664   11.7118  -25.2670 C   0  0  0  0  0  0  0  0  0  0  0  0
  -14.7834   11.5147  -26.2020 C   0  0  0  0  0  0  0  0  0  0  0  0
  -16.4336   10.6365  -24.4997 C   0  0  0  0  0  0  0  0  0  0  0  0
  -17.9217   10.9469  -24.5414 C   0  0  0  0  0  0  0  0  0  0  0  0
  -18.2637   12.2159  -23.9806 N   0  0  0  0  0  4  0  0  0  0  0  0
  -17.2334   13.2005  -23.9837 C   0  0  0  0  0  0  0  0  0  0  0  0
  -12.6360   14.6429  -28.0368 N   0  0  0  0  0  0  0  0  0  0  0  0
   -9.6380   19.1075  -30.0340 C   0  0  0  0  0  0  0  0  0  0  0  0
  1  2  2  0
  2  3  1  0
  3  4  1  0
  4  5  2  0
  5  6  1  0
  6  7  2  0
  7  8  1  0
  8  9  2  0
  2 10  1  0
 10 11  1  0
 11 12  2  0
 12 13  1  0
 13 14  2  0
 14 15  1  0
 15 16  1  0
 16 17  1  0
 17 18  2  0
 18 19  1  0
 19 20  1  0
 20 21  2  0
 21 22  1  0
 22 23  1  0
 23 24  1  0
 24 25  2  0
 25 26  1  0
 26 27  2  0
 27 28  1  0
 28 29  1  0
 29 30  1  0
 30 31  2  0
 31 32  1  0
 32 33  2  0
 33 34  1  0
 34 35  2  0
 34 36  1  0
 36 37  1  0
 37 38  1  0
 38 39  1  0
 28 40  2  0
 15 41  2  0
  9  4  1  0
 41 11  1  0
 23 16  2  0
 40 24  1  0
 22 18  1  0
 35 30  1  0
 39 33  1  0
M  CHG  1  38   1
M  END
$$$$
CHEMBL1090364_diffdock_6
     RDKit          3D

 41 47  0  0  0  0  0  0  0  0999 V2000
   -5.4499   20.1818  -30.3986 O   0  0  0  0  0  0  0  0  0  0  0  0
   -6.1611   20.4515  -31.3880 C   0  0  0  0  0  0  0  0  0  0  0  0
   -5.6686   21.4264  -32.4135 C   0  0  0  0  0  0  0  0  0  0  0  0
   -6.6015   22.5414  -32.5770 C   0  0  0  0  0  0  0  0  0  0  0  0
   -6.5447   23.5388  -31.5863 C   0  0  0  0  0  0  0  0  0  0  0  0
   -7.3891   24.6358  -31.6780 C   0  0  0  0  0  0  0  0  0  0  0  0
   -8.2851   24.7687  -32.7244 C   0  0  0  0  0  0  0  0  0  0  0  0
   -8.3291   23.7937  -33.6783 C   0  0  0  0  0  0  0  0  0  0  0  0
   -7.4939   22.7030  -33.5903 C   0  0  0  0  0  0  0  0  0  0  0  0
   -7.4261   19.8115  -31.4926 N   0  0  0  0  0  0  0  0  0  0  0  0
   -7.8684   18.7734  -30.6435 C   0  0  0  0  0  0  0  0  0  0  0  0
   -7.0339   17.7003  -30.3222 C   0  0  0  0  0  0  0  0  0  0  0  0
   -7.4234   16.7043  -29.4497 C   0  0  0  0  0  0  0  0  0  0  0  0
   -8.6860   16.8057  -28.8956 C   0  0  0  0  0  0  0  0  0  0  0  0
   -9.5550   17.8652  -29.1900 C   0  0  0  0  0  0  0  0  0  0  0  0
  -10.8498   17.9202  -28.5195 C   0  0  0  0  0  0  0  0  0  0  0  0
  -11.3564   19.0918  -28.0278 N   0  0  0  0  0  0  0  0  0  0  0  0
  -12.5632   18.8149  -27.4414 C   0  0  0  0  0  0  0  0  0  0  0  0
  -13.9088   19.4581  -26.6037 S   0  0  0  0  0  0  0  0  0  0  0  0
  -14.7940   18.0175  -26.4098 C   0  0  0  0  0  0  0  0  0  0  0  0
  -13.9872   17.0943  -27.0162 C   0  0  0  0  0  0  0  0  0  0  0  0
  -12.8504   17.5223  -27.5377 N   0  0  0  0  0  0  0  0  0  0  0  0
  -11.7799   16.9683  -28.2106 C   0  0  0  0  0  0  0  0  0  0  0  0
  -11.6043   15.5553  -28.5869 C   0  0  0  0  0  0  0  0  0  0  0  0
  -10.5836   15.2109  -29.4433 C   0  0  0  0  0  0  0  0  0  0  0  0
  -10.3913   13.9006  -29.8260 C   0  0  0  0  0  0  0  0  0  0  0  0
  -11.2521   12.9739  -29.3206 N   0  0  0  0  0  0  0  0  0  0  0  0
  -12.2404   13.2928  -28.4928 C   0  0  0  0  0  0  0  0  0  0  0  0
  -13.1157   12.3019  -27.9911 N   0  0  0  0  0  0  0  0  0  0  0  0
  -14.1359   12.6181  -27.0603 C   0  0  0  0  0  0  0  0  0  0  0  0
  -14.6437   11.6876  -26.1857 C   0  0  0  0  0  0  0  0  0  0  0  0
  -15.6474   12.0183  -25.3047 C   0  0  0  0  0  0  0  0  0  0  0  0
  -16.1536   13.3081  -25.2984 C   0  0  0  0  0  0  0  0  0  0  0  0
  -15.6564   14.2767  -26.1760 C   0  0  0  0  0  0  0  0  0  0  0  0
  -14.6564   13.9156  -27.0415 C   0  0  0  0  0  0  0  0  0  0  0  0
  -16.2565   15.6268  -26.0908 C   0  0  0  0  0  0  0  0  0  0  0  0
  -16.3389   15.9612  -24.6096 C   0  0  0  0  0  0  0  0  0  0  0  0
  -17.1260   15.0405  -23.8517 N   0  0  0  0  0  4  0  0  0  0  0  0
  -17.2450   13.7265  -24.3903 C   0  0  0  0  0  0  0  0  0  0  0  0
  -12.4093   14.5889  -28.1307 N   0  0  0  0  0  0  0  0  0  0  0  0
   -9.1285   18.8379  -30.0665 C   0  0  0  0  0  0  0  0  0  0  0  0
  1  2  2  0
  2  3  1  0
  3  4  1  0
  4  5  2  0
  5  6  1  0
  6  7  2  0
  7  8  1  0
  8  9  2  0
  2 10  1  0
 10 11  1  0
 11 12  2  0
 12 13  1  0
 13 14  2  0
 14 15  1  0
 15 16  1  0
 16 17  1  0
 17 18  2  0
 18 19  1  0
 19 20  1  0
 20 21  2  0
 21 22  1  0
 22 23  1  0
 23 24  1  0
 24 25  2  0
 25 26  1  0
 26 27  2  0
 27 28  1  0
 28 29  1  0
 29 30  1  0
 30 31  2  0
 31 32  1  0
 32 33  2  0
 33 34  1  0
 34 35  2  0
 34 36  1  0
 36 37  1  0
 37 38  1  0
 38 39  1  0
 28 40  2  0
 15 41  2  0
  9  4  1  0
 41 11  1  0
 23 16  2  0
 40 24  1  0
 22 18  1  0
 35 30  1  0
 39 33  1  0
M  CHG  1  38   1
M  END
$$$$
CHEMBL1090364_diffdock_7
     RDKit          3D

 41 47  0  0  0  0  0  0  0  0999 V2000
   -5.7470   19.1415  -32.2397 O   0  0  0  0  0  0  0  0  0  0  0  0
   -5.4931   19.3002  -31.0282 C   0  0  0  0  0  0  0  0  0  0  0  0
   -4.0903   19.6004  -30.5960 C   0  0  0  0  0  0  0  0  0  0  0  0
   -3.7409   20.9964  -30.8594 C   0  0  0  0  0  0  0  0  0  0  0  0
   -3.1639   21.6974  -29.7845 C   0  0  0  0  0  0  0  0  0  0  0  0
   -2.7927   23.0227  -29.9592 C   0  0  0  0  0  0  0  0  0  0  0  0
   -2.9780   23.6683  -31.1692 C   0  0  0  0  0  0  0  0  0  0  0  0
   -3.5386   22.9760  -32.2031 C   0  0  0  0  0  0  0  0  0  0  0  0
   -3.9094   21.6612  -32.0335 C   0  0  0  0  0  0  0  0  0  0  0  0
   -6.5655   19.1830  -30.1025 N   0  0  0  0  0  0  0  0  0  0  0  0
   -7.7976   18.5527  -30.3835 C   0  0  0  0  0  0  0  0  0  0  0  0
   -8.0109   17.8964  -31.5980 C   0  0  0  0  0  0  0  0  0  0  0  0
   -9.1850   17.2247  -31.8720 C   0  0  0  0  0  0  0  0  0  0  0  0
  -10.1578   17.2229  -30.8897 C   0  0  0  0  0  0  0  0  0  0  0  0
   -9.9853   17.8680  -29.6575 C   0  0  0  0  0  0  0  0  0  0  0  0
  -11.0442   17.7710  -28.6582 C   0  0  0  0  0  0  0  0  0  0  0  0
  -11.5163   18.8734  -28.0005 N   0  0  0  0  0  0  0  0  0  0  0  0
  -12.4793   18.4573  -27.1194 C   0  0  0  0  0  0  0  0  0  0  0  0
  -13.6025   18.9373  -25.9219 S   0  0  0  0  0  0  0  0  0  0  0  0
  -14.2438   17.4047  -25.5525 C   0  0  0  0  0  0  0  0  0  0  0  0
  -13.5424   16.5838  -26.3922 C   0  0  0  0  0  0  0  0  0  0  0  0
  -12.6444   17.1416  -27.1857 N   0  0  0  0  0  0  0  0  0  0  0  0
  -11.7481   16.7178  -28.1463 C   0  0  0  0  0  0  0  0  0  0  0  0
  -11.5351   15.3371  -28.6127 C   0  0  0  0  0  0  0  0  0  0  0  0
  -10.5069   15.0762  -29.4893 C   0  0  0  0  0  0  0  0  0  0  0  0
  -10.2801   13.7988  -29.9554 C   0  0  0  0  0  0  0  0  0  0  0  0
  -11.1149   12.8187  -29.5109 N   0  0  0  0  0  0  0  0  0  0  0  0
  -12.1101   13.0570  -28.6645 C   0  0  0  0  0  0  0  0  0  0  0  0
  -12.9577   12.0127  -28.2278 N   0  0  0  0  0  0  0  0  0  0  0  0
  -13.9772   12.2384  -27.2702 C   0  0  0  0  0  0  0  0  0  0  0  0
  -14.4290   13.4999  -26.9648 C   0  0  0  0  0  0  0  0  0  0  0  0
  -15.4079   13.6908  -26.0171 C   0  0  0  0  0  0  0  0  0  0  0  0
  -15.9468   12.5957  -25.3611 C   0  0  0  0  0  0  0  0  0  0  0  0
  -15.5079   11.3000  -25.6512 C   0  0  0  0  0  0  0  0  0  0  0  0
  -14.5312   11.1434  -26.6004 C   0  0  0  0  0  0  0  0  0  0  0  0
  -16.1468   10.1947  -24.9027 C   0  0  0  0  0  0  0  0  0  0  0  0
  -17.6408   10.4779  -24.9221 C   0  0  0  0  0  0  0  0  0  0  0  0
  -18.0006   11.7267  -24.3284 N   0  0  0  0  0  4  0  0  0  0  0  0
  -16.9889   12.7304  -24.3188 C   0  0  0  0  0  0  0  0  0  0  0  0
  -12.3132   14.3221  -28.2198 N   0  0  0  0  0  0  0  0  0  0  0  0
   -8.7994   18.5280  -29.4240 C   0  0  0  0  0  0  0  0  0  0  0  0
  1  2  2  0
  2  3  1  0
  3  4  1  0
  4  5  2  0
  5  6  1  0
  6  7  2  0
  7  8  1  0
  8  9  2  0
  2 10  1  0
 10 11  1  0
 11 12  2  0
 12 13  1  0
 13 14  2  0
 14 15  1  0
 15 16  1  0
 16 17  1  0
 17 18  2  0
 18 19  1  0
 19 20  1  0
 20 21  2  0
 21 22  1  0
 22 23  1  0
 23 24  1  0
 24 25  2  0
 25 26  1  0
 26 27  2  0
 27 28  1  0
 28 29  1  0
 29 30  1  0
 30 31  2  0
 31 32  1  0
 32 33  2  0
 33 34  1  0
 34 35  2  0
 34 36  1  0
 36 37  1  0
 37 38  1  0
 38 39  1  0
 28 40  2  0
 15 41  2  0
  9  4  1  0
 41 11  1  0
 23 16  2  0
 40 24  1  0
 22 18  1  0
 35 30  1  0
 39 33  1  0
M  CHG  1  38   1
M  END
$$$$
CHEMBL1090364_diffdock_8
     RDKit          3D

 41 47  0  0  0  0  0  0  0  0999 V2000
   -6.1484   19.0057  -32.4299 O   0  0  0  0  0  0  0  0  0  0  0  0
   -6.1778   19.8115  -31.4774 C   0  0  0  0  0  0  0  0  0  0  0  0
   -4.9012   20.4109  -30.9715 C   0  0  0  0  0  0  0  0  0  0  0  0
   -3.8571   19.3958  -30.8313 C   0  0  0  0  0  0  0  0  0  0  0  0
   -2.6444   19.8369  -30.2705 C   0  0  0  0  0  0  0  0  0  0  0  0
   -1.6093   18.9304  -30.0925 C   0  0  0  0  0  0  0  0  0  0  0  0
   -1.7459   17.6018  -30.4549 C   0  0  0  0  0  0  0  0  0  0  0  0
   -2.9279   17.1881  -30.9975 C   0  0  0  0  0  0  0  0  0  0  0  0
   -3.9570   18.0844  -31.1768 C   0  0  0  0  0  0  0  0  0  0  0  0
   -7.4425   20.1233  -30.9082 N   0  0  0  0  0  0  0  0  0  0  0  0
   -8.5934   19.3138  -31.0278 C   0  0  0  0  0  0  0  0  0  0  0  0
   -8.8144   18.5395  -32.1692 C   0  0  0  0  0  0  0  0  0  0  0  0
   -9.9018   17.6974  -32.2846 C   0  0  0  0  0  0  0  0  0  0  0  0
  -10.7783   17.6446  -31.2167 C   0  0  0  0  0  0  0  0  0  0  0  0
  -10.5943   18.4039  -30.0530 C   0  0  0  0  0  0  0  0  0  0  0  0
  -11.5409   18.2469  -28.9537 C   0  0  0  0  0  0  0  0  0  0  0  0
  -12.0960   19.3259  -28.3224 N   0  0  0  0  0  0  0  0  0  0  0  0
  -12.9160   18.8568  -27.3302 C   0  0  0  0  0  0  0  0  0  0  0  0
  -13.9853   19.2771  -26.0629 S   0  0  0  0  0  0  0  0  0  0  0  0
  -14.3842   17.7068  -25.5418 C   0  0  0  0  0  0  0  0  0  0  0  0
  -13.6556   16.9220  -26.3928 C   0  0  0  0  0  0  0  0  0  0  0  0
  -12.9109   17.5295  -27.3005 N   0  0  0  0  0  0  0  0  0  0  0  0
  -12.0527   17.1534  -28.3143 C   0  0  0  0  0  0  0  0  0  0  0  0
  -11.7003   15.7804  -28.7139 C   0  0  0  0  0  0  0  0  0  0  0  0
  -10.5274   15.5614  -29.3996 C   0  0  0  0  0  0  0  0  0  0  0  0
  -10.1661   14.2923  -29.7985 C   0  0  0  0  0  0  0  0  0  0  0  0
  -11.0181   13.2770  -29.4844 N   0  0  0  0  0  0  0  0  0  0  0  0
  -12.1522   13.4747  -28.8224 C   0  0  0  0  0  0  0  0  0  0  0  0
  -13.0124   12.3946  -28.5171 N   0  0  0  0  0  0  0  0  0  0  0  0
  -14.0761   12.5344  -27.5916 C   0  0  0  0  0  0  0  0  0  0  0  0
  -14.5515   11.4751  -26.8566 C   0  0  0  0  0  0  0  0  0  0  0  0
  -15.5981   11.6363  -25.9782 C   0  0  0  0  0  0  0  0  0  0  0  0
  -16.1813   12.8847  -25.8318 C   0  0  0  0  0  0  0  0  0  0  0  0
  -15.7186   13.9815  -26.5656 C   0  0  0  0  0  0  0  0  0  0  0  0
  -14.6743   13.7880  -27.4325 C   0  0  0  0  0  0  0  0  0  0  0  0
  -16.4014   15.2745  -26.3369 C   0  0  0  0  0  0  0  0  0  0  0  0
  -16.5461   15.4165  -24.8298 C   0  0  0  0  0  0  0  0  0  0  0  0
  -17.2975   14.3657  -24.2193 N   0  0  0  0  0  4  0  0  0  0  0  0
  -17.3214   13.1244  -24.9189 C   0  0  0  0  0  0  0  0  0  0  0  0
  -12.4860   14.7326  -28.4405 N   0  0  0  0  0  0  0  0  0  0  0  0
   -9.4972   19.2327  -29.9783 C   0  0  0  0  0  0  0  0  0  0  0  0
  1  2  2  0
  2  3  1  0
  3  4  1  0
  4  5  2  0
  5  6  1  0
  6  7  2  0
  7  8  1  0
  8  9  2  0
  2 10  1  0
 10 11  1  0
 11 12  2  0
 12 13  1  0
 13 14  2  0
 14 15  1  0
 15 16  1  0
 16 17  1  0
 17 18  2  0
 18 19  1  0
 19 20  1  0
 20 21  2  0
 21 22  1  0
 22 23  1  0
 23 24  1  0
 24 25  2  0
 25 26  1  0
 26 27  2  0
 27 28  1  0
 28 29  1  0
 29 30  1  0
 30 31  2  0
 31 32  1  0
 32 33  2  0
 33 34  1  0
 34 35  2  0
 34 36  1  0
 36 37  1  0
 37 38  1  0
 38 39  1  0
 28 40  2  0
 15 41  2  0
  9  4  1  0
 41 11  1  0
 23 16  2  0
 40 24  1  0
 22 18  1  0
 35 30  1  0
 39 33  1  0
M  CHG  1  38   1
M  END
$$$$
CHEMBL1090364_diffdock_9
     RDKit          3D

 41 47  0  0  0  0  0  0  0  0999 V2000
   -5.6463   19.6546  -31.6437 O   0  0  0  0  0  0  0  0  0  0  0  0
   -6.4672   20.5907  -31.5590 C   0  0  0  0  0  0  0  0  0  0  0  0
   -6.0293   21.9922  -31.8571 C   0  0  0  0  0  0  0  0  0  0  0  0
   -5.5875   22.1265  -33.2452 C   0  0  0  0  0  0  0  0  0  0  0  0
   -5.4048   20.9223  -33.9498 C   0  0  0  0  0  0  0  0  0  0  0  0
   -4.9993   20.9663  -35.2758 C   0  0  0  0  0  0  0  0  0  0  0  0
   -4.7716   22.1703  -35.9191 C   0  0  0  0  0  0  0  0  0  0  0  0
   -4.9530   23.3303  -35.2234 C   0  0  0  0  0  0  0  0  0  0  0  0
   -5.3541   23.2910  -33.9072 C   0  0  0  0  0  0  0  0  0  0  0  0
   -7.7988   20.2755  -31.1741 N   0  0  0  0  0  0  0  0  0  0  0  0
   -8.1678   19.1240  -30.4446 C   0  0  0  0  0  0  0  0  0  0  0  0
   -7.2685   18.0719  -30.2555 C   0  0  0  0  0  0  0  0  0  0  0  0
   -7.5867   16.9626  -29.4984 C   0  0  0  0  0  0  0  0  0  0  0  0
   -8.8440   16.9268  -28.9245 C   0  0  0  0  0  0  0  0  0  0  0  0
   -9.7765   17.9603  -29.0882 C   0  0  0  0  0  0  0  0  0  0  0  0
  -11.0615   17.8635  -28.4036 C   0  0  0  0  0  0  0  0  0  0  0  0
  -11.6696   18.9596  -27.8563 N   0  0  0  0  0  0  0  0  0  0  0  0
  -12.8369   18.5447  -27.2712 C   0  0  0  0  0  0  0  0  0  0  0  0
  -14.2256   19.0209  -26.3933 S   0  0  0  0  0  0  0  0  0  0  0  0
  -14.9681   17.4958  -26.2543 C   0  0  0  0  0  0  0  0  0  0  0  0
  -14.0861   16.6801  -26.9082 C   0  0  0  0  0  0  0  0  0  0  0  0
  -13.0020   17.2359  -27.4212 N   0  0  0  0  0  0  0  0  0  0  0  0
  -11.8932   16.8153  -28.1279 C   0  0  0  0  0  0  0  0  0  0  0  0
  -11.5901   15.4427  -28.5673 C   0  0  0  0  0  0  0  0  0  0  0  0
  -10.3897   15.1873  -29.1900 C   0  0  0  0  0  0  0  0  0  0  0  0
  -10.0723   13.9177  -29.6235 C   0  0  0  0  0  0  0  0  0  0  0  0
  -10.9952   12.9396  -29.4078 N   0  0  0  0  0  0  0  0  0  0  0  0
  -12.1566   13.1725  -28.8075 C   0  0  0  0  0  0  0  0  0  0  0  0
  -13.0908   12.1305  -28.6040 N   0  0  0  0  0  0  0  0  0  0  0  0
  -14.1062   12.2284  -27.6208 C   0  0  0  0  0  0  0  0  0  0  0  0
  -14.6179   13.4372  -27.2140 C   0  0  0  0  0  0  0  0  0  0  0  0
  -15.5911   13.5032  -26.2438 C   0  0  0  0  0  0  0  0  0  0  0  0
  -16.0628   12.3343  -25.6684 C   0  0  0  0  0  0  0  0  0  0  0  0
  -15.5619   11.0896  -26.0624 C   0  0  0  0  0  0  0  0  0  0  0  0
  -14.5927   11.0577  -27.0315 C   0  0  0  0  0  0  0  0  0  0  0  0
  -16.1316    9.8981  -25.3945 C   0  0  0  0  0  0  0  0  0  0  0  0
  -17.6383   10.1028  -25.3756 C   0  0  0  0  0  0  0  0  0  0  0  0
  -18.0533   11.2819  -24.6834 N   0  0  0  0  0  4  0  0  0  0  0  0
  -17.0948   12.3339  -24.6074 C   0  0  0  0  0  0  0  0  0  0  0  0
  -12.4462   14.4300  -28.3898 N   0  0  0  0  0  0  0  0  0  0  0  0
   -9.4201   19.0492  -29.8523 C   0  0  0  0  0  0  0  0  0  0  0  0
  1  2  2  0
  2  3  1  0
  3  4  1  0
  4  5  2  0
  5  6  1  0
  6  7  2  0
  7  8  1  0
  8  9  2  0
  2 10  1  0
 10 11  1  0
 11 12  2  0
 12 13  1  0
 13 14  2  0
 14 15  1  0
 15 16  1  0
 16 17  1  0
 17 18  2  0
 18 19  1  0
 19 20  1  0
 20 21  2  0
 21 22  1  0
 22 23  1  0
 23 24  1  0
 24 25  2  0
 25 26  1  0
 26 27  2  0
 27 28  1  0
 28 29  1  0
 29 30  1  0
 30 31  2  0
 31 32  1  0
 32 33  2  0
 33 34  1  0
 34 35  2  0
 34 36  1  0
 36 37  1  0
 37 38  1  0
 38 39  1  0
 28 40  2  0
 15 41  2  0
  9  4  1  0
 41 11  1  0
 23 16  2  0
 40 24  1  0
 22 18  1  0
 35 30  1  0
 39 33  1  0
M  CHG  1  38   1
M  END
$$$$
CHEMBL1090364_diffdock_10
     RDKit          3D

 41 47  0  0  0  0  0  0  0  0999 V2000
   -5.4892   19.0844  -31.7408 O   0  0  0  0  0  0  0  0  0  0  0  0
   -6.3394   19.8955  -32.1612 C   0  0  0  0  0  0  0  0  0  0  0  0
   -5.9330   20.9612  -33.1327 C   0  0  0  0  0  0  0  0  0  0  0  0
   -4.9075   21.8355  -32.5634 C   0  0  0  0  0  0  0  0  0  0  0  0
   -4.3440   21.4084  -31.3469 C   0  0  0  0  0  0  0  0  0  0  0  0
   -3.3551   22.1767  -30.7499 C   0  0  0  0  0  0  0  0  0  0  0  0
   -2.9117   23.3538  -31.3270 C   0  0  0  0  0  0  0  0  0  0  0  0
   -3.4670   23.7557  -32.5072 C   0  0  0  0  0  0  0  0  0  0  0  0
   -4.4493   22.9968  -33.1022 C   0  0  0  0  0  0  0  0  0  0  0  0
   -7.6732   19.7674  -31.6866 N   0  0  0  0  0  0  0  0  0  0  0  0
   -8.1227   18.7325  -30.8375 C   0  0  0  0  0  0  0  0  0  0  0  0
   -7.2510   17.7358  -30.3923 C   0  0  0  0  0  0  0  0  0  0  0  0
   -7.6532   16.7476  -29.5167 C   0  0  0  0  0  0  0  0  0  0  0  0
   -8.9673   16.7773  -29.0882 C   0  0  0  0  0  0  0  0  0  0  0  0
   -9.8749   17.7588  -29.5094 C   0  0  0  0  0  0  0  0  0  0  0  0
  -11.2291   17.7445  -28.9660 C   0  0  0  0  0  0  0  0  0  0  0  0
  -11.8218   18.8776  -28.4806 N   0  0  0  0  0  0  0  0  0  0  0  0
  -13.0686   18.5381  -28.0253 C   0  0  0  0  0  0  0  0  0  0  0  0
  -14.5102   19.1023  -27.2977 S   0  0  0  0  0  0  0  0  0  0  0  0
  -15.3580   17.6275  -27.2469 C   0  0  0  0  0  0  0  0  0  0  0  0
  -14.4645   16.7567  -27.8076 C   0  0  0  0  0  0  0  0  0  0  0  0
  -13.2990   17.2422  -28.1992 N   0  0  0  0  0  0  0  0  0  0  0  0
  -12.1499   16.7513  -28.7861 C   0  0  0  0  0  0  0  0  0  0  0  0
  -11.8888   15.3617  -29.1983 C   0  0  0  0  0  0  0  0  0  0  0  0
  -10.8463   15.1015  -30.0580 C   0  0  0  0  0  0  0  0  0  0  0  0
  -10.5747   13.8155  -30.4738 C   0  0  0  0  0  0  0  0  0  0  0  0
  -11.3805   12.8261  -29.9973 N   0  0  0  0  0  0  0  0  0  0  0  0
  -12.3890   13.0636  -29.1667 C   0  0  0  0  0  0  0  0  0  0  0  0
  -13.2054   12.0094  -28.6957 N   0  0  0  0  0  0  0  0  0  0  0  0
  -14.3893   12.2624  -27.9597 C   0  0  0  0  0  0  0  0  0  0  0  0
  -15.2463   11.2565  -27.5823 C   0  0  0  0  0  0  0  0  0  0  0  0
  -16.3986   11.5335  -26.8835 C   0  0  0  0  0  0  0  0  0  0  0  0
  -16.6997   12.8455  -26.5547 C   0  0  0  0  0  0  0  0  0  0  0  0
  -15.8465   13.8900  -26.9243 C   0  0  0  0  0  0  0  0  0  0  0  0
  -14.7064   13.5809  -27.6200 C   0  0  0  0  0  0  0  0  0  0  0  0
  -16.2503   15.2562  -26.5234 C   0  0  0  0  0  0  0  0  0  0  0  0
  -16.6938   15.1583  -25.0721 C   0  0  0  0  0  0  0  0  0  0  0  0
  -17.7823   14.2575  -24.8595 N   0  0  0  0  0  4  0  0  0  0  0  0
  -17.9304   13.2158  -25.8207 C   0  0  0  0  0  0  0  0  0  0  0  0
  -12.6364   14.3374  -28.7717 N   0  0  0  0  0  0  0  0  0  0  0  0
   -9.4340   18.7265  -30.3844 C   0  0  0  0  0  0  0  0  0  0  0  0
  1  2  2  0
  2  3  1  0
  3  4  1  0
  4  5  2  0
  5  6  1  0
  6  7  2  0
  7  8  1  0
  8  9  2  0
  2 10  1  0
 10 11  1  0
 11 12  2  0
 12 13  1  0
 13 14  2  0
 14 15  1  0
 15 16  1  0
 16 17  1  0
 17 18  2  0
 18 19  1  0
 19 20  1  0
 20 21  2  0
 21 22  1  0
 22 23  1  0
 23 24  1  0
 24 25  2  0
 25 26  1  0
 26 27  2  0
 27 28  1  0
 28 29  1  0
 29 30  1  0
 30 31  2  0
 31 32  1  0
 32 33  2  0
 33 34  1  0
 34 35  2  0
 34 36  1  0
 36 37  1  0
 37 38  1  0
 38 39  1  0
 28 40  2  0
 15 41  2  0
  9  4  1  0
 41 11  1  0
 23 16  2  0
 40 24  1  0
 22 18  1  0
 35 30  1  0
 39 33  1  0
M  CHG  1  38   1
M  END
$$$$
CHEMBL77452_diffdock_1
     RDKit          3D

 31 35  0  0  0  0  0  0  0  0999 V2000
  -19.2042    8.7641  -20.1443 O   0  0  0  0  0  0  0  0  0  0  0  0
  -18.4737    9.9514  -20.0537 C   0  0  0  0  0  0  0  0  0  0  0  0
  -17.6394   10.0588  -21.3095 C   0  0  0  0  0  0  0  0  0  0  0  0
  -18.4566    9.7884  -22.5523 C   0  0  0  0  0  0  0  0  0  0  0  0
  -17.8264   10.2207  -23.7507 N   0  0  0  0  0  0  0  0  0  0  0  0
  -18.0972   11.5585  -24.1655 C   0  0  0  0  0  0  0  0  0  0  0  0
  -16.9565   12.0530  -24.9960 C   0  0  0  0  0  0  0  0  0  0  0  0
  -16.1814   11.2332  -25.7823 C   0  0  0  0  0  0  0  0  0  0  0  0
  -15.1195   11.7259  -26.5478 C   0  0  0  0  0  0  0  0  0  0  0  0
  -14.8362   13.0587  -26.5200 C   0  0  0  0  0  0  0  0  0  0  0  0
  -13.7160   13.5922  -27.3243 C   0  0  0  0  0  0  0  0  0  0  0  0
  -12.8571   12.8951  -28.1291 C   0  0  0  0  0  0  0  0  0  0  0  0
  -11.9065   13.5925  -28.7699 C   0  0  0  0  0  0  0  0  0  0  0  0
  -10.9420   13.1129  -29.6220 N   0  0  0  0  0  0  0  0  0  0  0  0
  -10.0506   13.9048  -30.1996 C   0  0  0  0  0  0  0  0  0  0  0  0
   -9.9881   15.2642  -30.0186 C   0  0  0  0  0  0  0  0  0  0  0  0
  -10.9330   15.8004  -29.1716 C   0  0  0  0  0  0  0  0  0  0  0  0
  -11.0363   17.1583  -28.8323 N   0  0  0  0  0  0  0  0  0  0  0  0
  -10.1076   18.0971  -29.3440 C   0  0  0  0  0  0  0  0  0  0  0  0
  -10.5539   19.3917  -29.6324 C   0  0  0  0  0  0  0  0  0  0  0  0
   -9.7122   20.3763  -30.1119 C   0  0  0  0  0  0  0  0  0  0  0  0
   -8.3788   20.0890  -30.3197 C   0  0  0  0  0  0  0  0  0  0  0  0
   -7.3559   20.8344  -30.7676 N   0  0  0  0  0  0  0  0  0  0  0  0
   -6.2186   20.1083  -30.8007 C   0  0  0  0  0  0  0  0  0  0  0  0
   -6.5628   18.8507  -30.3489 C   0  0  0  0  0  0  0  0  0  0  0  0
   -7.9051   18.8169  -30.0437 C   0  0  0  0  0  0  0  0  0  0  0  0
   -8.7725   17.8507  -29.5637 C   0  0  0  0  0  0  0  0  0  0  0  0
  -11.8709   14.9399  -28.5690 C   0  0  0  0  0  0  0  0  0  0  0  0
  -13.1663   15.2011  -27.4897 S   0  0  0  0  0  0  0  0  0  0  0  0
  -15.6154   13.8706  -25.7318 C   0  0  0  0  0  0  0  0  0  0  0  0
  -16.6530   13.4136  -24.9793 C   0  0  0  0  0  0  0  0  0  0  0  0
  1  2  1  0
  2  3  1  0
  3  4  1  0
  4  5  1  0
  5  6  1  0
  6  7  1  0
  7  8  2  0
  8  9  1  0
  9 10  2  0
 10 11  1  0
 11 12  2  0
 12 13  1  0
 13 14  2  0
 14 15  1  0
 15 16  2  0
 16 17  1  0
 17 18  1  0
 18 19  1  0
 19 20  2  0
 20 21  1  0
 21 22  2  0
 22 23  1  0
 23 24  1  0
 24 25  2  0
 25 26  1  0
 26 27  2  0
 17 28  2  0
 28 29  1  0
 10 30  1  0
 30 31  2  0
 31  7  1  0
 29 11  1  0
 28 13  1  0
 27 19  1  0
 26 22  1  0
M  END
$$$$
CHEMBL77452_diffdock_2
     RDKit          3D

 31 35  0  0  0  0  0  0  0  0999 V2000
  -19.6741   14.0375  -19.6218 O   0  0  0  0  0  0  0  0  0  0  0  0
  -19.7763   12.6659  -19.8666 C   0  0  0  0  0  0  0  0  0  0  0  0
  -18.7054   12.3113  -20.8726 C   0  0  0  0  0  0  0  0  0  0  0  0
  -19.2655   11.5268  -22.0372 C   0  0  0  0  0  0  0  0  0  0  0  0
  -18.3121   11.2713  -23.0599 N   0  0  0  0  0  0  0  0  0  0  0  0
  -18.6825   11.6499  -24.3845 C   0  0  0  0  0  0  0  0  0  0  0  0
  -17.4680   12.1280  -25.1137 C   0  0  0  0  0  0  0  0  0  0  0  0
  -16.6476   11.2993  -25.8426 C   0  0  0  0  0  0  0  0  0  0  0  0
  -15.5169   11.7766  -26.5136 C   0  0  0  0  0  0  0  0  0  0  0  0
  -15.2104   13.1030  -26.4488 C   0  0  0  0  0  0  0  0  0  0  0  0
  -14.0176   13.6203  -27.1532 C   0  0  0  0  0  0  0  0  0  0  0  0
  -13.0588   12.9022  -27.8138 C   0  0  0  0  0  0  0  0  0  0  0  0
  -12.0564   13.5878  -28.3848 C   0  0  0  0  0  0  0  0  0  0  0  0
  -10.9919   13.0870  -29.0934 N   0  0  0  0  0  0  0  0  0  0  0  0
  -10.0575   13.8688  -29.6140 C   0  0  0  0  0  0  0  0  0  0  0  0
  -10.0442   15.2375  -29.5088 C   0  0  0  0  0  0  0  0  0  0  0  0
  -11.0899   15.7950  -28.8063 C   0  0  0  0  0  0  0  0  0  0  0  0
  -11.2591   17.1667  -28.5624 N   0  0  0  0  0  0  0  0  0  0  0  0
  -10.2702   18.0943  -28.9714 C   0  0  0  0  0  0  0  0  0  0  0  0
  -10.3734   18.6650  -30.2450 C   0  0  0  0  0  0  0  0  0  0  0  0
   -9.4674   19.5951  -30.7160 C   0  0  0  0  0  0  0  0  0  0  0  0
   -8.4157   19.9869  -29.9133 C   0  0  0  0  0  0  0  0  0  0  0  0
   -7.4084   20.8530  -30.1074 N   0  0  0  0  0  0  0  0  0  0  0  0
   -6.6117   20.9056  -29.0192 C   0  0  0  0  0  0  0  0  0  0  0  0
   -7.1599   20.0247  -28.1095 C   0  0  0  0  0  0  0  0  0  0  0  0
   -8.2854   19.4410  -28.6469 C   0  0  0  0  0  0  0  0  0  0  0  0
   -9.2093   18.5111  -28.2020 C   0  0  0  0  0  0  0  0  0  0  0  0
  -12.0719   14.9449  -28.2620 C   0  0  0  0  0  0  0  0  0  0  0  0
  -13.4863   15.2316  -27.3519 S   0  0  0  0  0  0  0  0  0  0  0  0
  -16.0352   13.9238  -25.7185 C   0  0  0  0  0  0  0  0  0  0  0  0
  -17.1398   13.4818  -25.0581 C   0  0  0  0  0  0  0  0  0  0  0  0
  1  2  1  0
  2  3  1  0
  3  4  1  0
  4  5  1  0
  5  6  1  0
  6  7  1  0
  7  8  2  0
  8  9  1  0
  9 10  2  0
 10 11  1  0
 11 12  2  0
 12 13  1  0
 13 14  2  0
 14 15  1  0
 15 16  2  0
 16 17  1  0
 17 18  1  0
 18 19  1  0
 19 20  2  0
 20 21  1  0
 21 22  2  0
 22 23  1  0
 23 24  1  0
 24 25  2  0
 25 26  1  0
 26 27  2  0
 17 28  2  0
 28 29  1  0
 10 30  1  0
 30 31  2  0
 31  7  1  0
 29 11  1  0
 28 13  1  0
 27 19  1  0
 26 22  1  0
M  END
$$$$
CHEMBL77452_diffdock_3
     RDKit          3D

 31 35  0  0  0  0  0  0  0  0999 V2000
  -19.8461   13.1501  -19.0289 O   0  0  0  0  0  0  0  0  0  0  0  0
  -19.0212   13.3403  -20.1402 C   0  0  0  0  0  0  0  0  0  0  0  0
  -19.4324   12.3234  -21.1802 C   0  0  0  0  0  0  0  0  0  0  0  0
  -18.5192   12.3501  -22.3847 C   0  0  0  0  0  0  0  0  0  0  0  0
  -18.8447   11.3739  -23.3651 N   0  0  0  0  0  0  0  0  0  0  0  0
  -19.1915   11.8628  -24.6596 C   0  0  0  0  0  0  0  0  0  0  0  0
  -17.9497   12.3111  -25.3614 C   0  0  0  0  0  0  0  0  0  0  0  0
  -16.9917   11.4443  -25.8326 C   0  0  0  0  0  0  0  0  0  0  0  0
  -15.8391   11.8946  -26.4847 C   0  0  0  0  0  0  0  0  0  0  0  0
  -15.6507   13.2326  -26.6634 C   0  0  0  0  0  0  0  0  0  0  0  0
  -14.4363   13.7217  -27.3508 C   0  0  0  0  0  0  0  0  0  0  0  0
  -13.4866   12.9815  -28.0001 C   0  0  0  0  0  0  0  0  0  0  0  0
  -12.4603   13.6433  -28.5563 C   0  0  0  0  0  0  0  0  0  0  0  0
  -11.3990   13.1178  -29.2518 N   0  0  0  0  0  0  0  0  0  0  0  0
  -10.4389   13.8773  -29.7583 C   0  0  0  0  0  0  0  0  0  0  0  0
  -10.3935   15.2451  -29.6501 C   0  0  0  0  0  0  0  0  0  0  0  0
  -11.4345   15.8269  -28.9604 C   0  0  0  0  0  0  0  0  0  0  0  0
  -11.5733   17.2019  -28.7159 N   0  0  0  0  0  0  0  0  0  0  0  0
  -10.6352   18.1217  -29.2446 C   0  0  0  0  0  0  0  0  0  0  0  0
  -10.1594   19.1438  -28.4157 C   0  0  0  0  0  0  0  0  0  0  0  0
   -9.2266   20.0694  -28.8411 C   0  0  0  0  0  0  0  0  0  0  0  0
   -8.7355   19.9974  -30.1286 C   0  0  0  0  0  0  0  0  0  0  0  0
   -7.8429   20.7464  -30.7955 N   0  0  0  0  0  0  0  0  0  0  0  0
   -7.6809   20.2840  -32.0531 C   0  0  0  0  0  0  0  0  0  0  0  0
   -8.5189   19.1932  -32.1630 C   0  0  0  0  0  0  0  0  0  0  0  0
   -9.1860   18.9970  -30.9744 C   0  0  0  0  0  0  0  0  0  0  0  0
  -10.1211   18.0833  -30.5196 C   0  0  0  0  0  0  0  0  0  0  0  0
  -12.4442   15.0002  -28.4309 C   0  0  0  0  0  0  0  0  0  0  0  0
  -13.8631   15.3198  -27.5391 S   0  0  0  0  0  0  0  0  0  0  0  0
  -16.6126   14.0915  -26.1896 C   0  0  0  0  0  0  0  0  0  0  0  0
  -17.7411   13.6762  -25.5527 C   0  0  0  0  0  0  0  0  0  0  0  0
  1  2  1  0
  2  3  1  0
  3  4  1  0
  4  5  1  0
  5  6  1  0
  6  7  1  0
  7  8  2  0
  8  9  1  0
  9 10  2  0
 10 11  1  0
 11 12  2  0
 12 13  1  0
 13 14  2  0
 14 15  1  0
 15 16  2  0
 16 17  1  0
 17 18  1  0
 18 19  1  0
 19 20  2  0
 20 21  1  0
 21 22  2  0
 22 23  1  0
 23 24  1  0
 24 25  2  0
 25 26  1  0
 26 27  2  0
 17 28  2  0
 28 29  1  0
 10 30  1  0
 30 31  2  0
 31  7  1  0
 29 11  1  0
 28 13  1  0
 27 19  1  0
 26 22  1  0
M  END
$$$$
CHEMBL77452_diffdock_4
     RDKit          3D

 31 35  0  0  0  0  0  0  0  0999 V2000
  -18.9264   12.6021  -18.3084 O   0  0  0  0  0  0  0  0  0  0  0  0
  -19.7878   12.8580  -19.3781 C   0  0  0  0  0  0  0  0  0  0  0  0
  -19.5984   11.7423  -20.3801 C   0  0  0  0  0  0  0  0  0  0  0  0
  -19.3330   12.2740  -21.7703 C   0  0  0  0  0  0  0  0  0  0  0  0
  -18.1992   11.6874  -22.3951 N   0  0  0  0  0  0  0  0  0  0  0  0
  -18.3514   11.3063  -23.7614 C   0  0  0  0  0  0  0  0  0  0  0  0
  -17.2319   11.8933  -24.5599 C   0  0  0  0  0  0  0  0  0  0  0  0
  -17.0333   13.2464  -24.7043 C   0  0  0  0  0  0  0  0  0  0  0  0
  -15.9765   13.7654  -25.4593 C   0  0  0  0  0  0  0  0  0  0  0  0
  -15.1112   12.9113  -26.0752 C   0  0  0  0  0  0  0  0  0  0  0  0
  -13.9901   13.4471  -26.8768 C   0  0  0  0  0  0  0  0  0  0  0  0
  -13.0070   12.7430  -27.5164 C   0  0  0  0  0  0  0  0  0  0  0  0
  -12.0830   13.4444  -28.1910 C   0  0  0  0  0  0  0  0  0  0  0  0
  -11.0129   12.9594  -28.9022 N   0  0  0  0  0  0  0  0  0  0  0  0
  -10.1619   13.7560  -29.5318 C   0  0  0  0  0  0  0  0  0  0  0  0
  -10.2479   15.1261  -29.5468 C   0  0  0  0  0  0  0  0  0  0  0  0
  -11.3038   15.6683  -28.8475 C   0  0  0  0  0  0  0  0  0  0  0  0
  -11.5663   17.0407  -28.7163 N   0  0  0  0  0  0  0  0  0  0  0  0
  -10.6872   17.9955  -29.2830 C   0  0  0  0  0  0  0  0  0  0  0  0
  -10.1499   18.9863  -28.4535 C   0  0  0  0  0  0  0  0  0  0  0  0
   -9.2671   19.9423  -28.9168 C   0  0  0  0  0  0  0  0  0  0  0  0
   -8.8907   19.9338  -30.2443 C   0  0  0  0  0  0  0  0  0  0  0  0
   -8.0675   20.7235  -30.9522 N   0  0  0  0  0  0  0  0  0  0  0  0
   -8.0125   20.3193  -32.2388 C   0  0  0  0  0  0  0  0  0  0  0  0
   -8.8465   19.2233  -32.3240 C   0  0  0  0  0  0  0  0  0  0  0  0
   -9.4043   18.9658  -31.0916 C   0  0  0  0  0  0  0  0  0  0  0  0
  -10.2871   18.0204  -30.5985 C   0  0  0  0  0  0  0  0  0  0  0  0
  -12.1961   14.8025  -28.1861 C   0  0  0  0  0  0  0  0  0  0  0  0
  -13.5905   15.0679  -27.2395 S   0  0  0  0  0  0  0  0  0  0  0  0
  -15.3169   11.5612  -25.9260 C   0  0  0  0  0  0  0  0  0  0  0  0
  -16.3375   11.0340  -25.1965 C   0  0  0  0  0  0  0  0  0  0  0  0
  1  2  1  0
  2  3  1  0
  3  4  1  0
  4  5  1  0
  5  6  1  0
  6  7  1  0
  7  8  2  0
  8  9  1  0
  9 10  2  0
 10 11  1  0
 11 12  2  0
 12 13  1  0
 13 14  2  0
 14 15  1  0
 15 16  2  0
 16 17  1  0
 17 18  1  0
 18 19  1  0
 19 20  2  0
 20 21  1  0
 21 22  2  0
 22 23  1  0
 23 24  1  0
 24 25  2  0
 25 26  1  0
 26 27  2  0
 17 28  2  0
 28 29  1  0
 10 30  1  0
 30 31  2  0
 31  7  1  0
 29 11  1  0
 28 13  1  0
 27 19  1  0
 26 22  1  0
M  END
$$$$
CHEMBL77452_diffdock_5
     RDKit          3D

 31 35  0  0  0  0  0  0  0  0999 V2000
  -23.1531    8.1540  -24.8884 O   0  0  0  0  0  0  0  0  0  0  0  0
  -21.8120    8.1564  -24.4973 C   0  0  0  0  0  0  0  0  0  0  0  0
  -21.4517    9.5822  -24.1479 C   0  0  0  0  0  0  0  0  0  0  0  0
  -20.6164   10.2319  -25.2276 C   0  0  0  0  0  0  0  0  0  0  0  0
  -19.3007   10.5635  -24.8045 N   0  0  0  0  0  0  0  0  0  0  0  0
  -19.0488   11.9404  -24.5290 C   0  0  0  0  0  0  0  0  0  0  0  0
  -17.8415   12.3788  -25.2942 C   0  0  0  0  0  0  0  0  0  0  0  0
  -17.0689   11.5236  -26.0445 C   0  0  0  0  0  0  0  0  0  0  0  0
  -15.9438   11.9641  -26.7490 C   0  0  0  0  0  0  0  0  0  0  0  0
  -15.5940   13.2803  -26.6964 C   0  0  0  0  0  0  0  0  0  0  0  0
  -14.4065   13.7587  -27.4363 C   0  0  0  0  0  0  0  0  0  0  0  0
  -13.5117   13.0137  -28.1545 C   0  0  0  0  0  0  0  0  0  0  0  0
  -12.5005   13.6656  -28.7488 C   0  0  0  0  0  0  0  0  0  0  0  0
  -11.4914   13.1339  -29.5138 N   0  0  0  0  0  0  0  0  0  0  0  0
  -10.5414   13.8837  -30.0525 C   0  0  0  0  0  0  0  0  0  0  0  0
  -10.4562   15.2468  -29.9128 C   0  0  0  0  0  0  0  0  0  0  0  0
  -11.4439   15.8345  -29.1533 C   0  0  0  0  0  0  0  0  0  0  0  0
  -11.5352   17.2055  -28.8673 N   0  0  0  0  0  0  0  0  0  0  0  0
  -10.5192   18.0952  -29.2935 C   0  0  0  0  0  0  0  0  0  0  0  0
  -10.6887   19.4651  -29.0628 C   0  0  0  0  0  0  0  0  0  0  0  0
   -9.7388   20.4006  -29.4238 C   0  0  0  0  0  0  0  0  0  0  0  0
   -8.5737   19.9855  -30.0355 C   0  0  0  0  0  0  0  0  0  0  0  0
   -7.5023   20.6589  -30.4838 N   0  0  0  0  0  0  0  0  0  0  0  0
   -6.5971   19.8106  -31.0154 C   0  0  0  0  0  0  0  0  0  0  0  0
   -7.1427   18.5499  -30.8860 C   0  0  0  0  0  0  0  0  0  0  0  0
   -8.3750   18.6361  -30.2776 C   0  0  0  0  0  0  0  0  0  0  0  0
   -9.3449   17.7217  -29.9042 C   0  0  0  0  0  0  0  0  0  0  0  0
  -12.4440   15.0180  -28.5906 C   0  0  0  0  0  0  0  0  0  0  0  0
  -13.8047   15.3473  -27.6153 S   0  0  0  0  0  0  0  0  0  0  0  0
  -16.3711   14.1278  -25.9446 C   0  0  0  0  0  0  0  0  0  0  0  0
  -17.4695   13.7218  -25.2514 C   0  0  0  0  0  0  0  0  0  0  0  0
  1  2  1  0
  2  3  1  0
  3  4  1  0
  4  5  1  0
  5  6  1  0
  6  7  1  0
  7  8  2  0
  8  9  1  0
  9 10  2  0
 10 11  1  0
 11 12  2  0
 12 13  1  0
 13 14  2  0
 14 15  1  0
 15 16  2  0
 16 17  1  0
 17 18  1  0
 18 19  1  0
 19 20  2  0
 20 21  1  0
 21 22  2  0
 22 23  1  0
 23 24  1  0
 24 25  2  0
 25 26  1  0
 26 27  2  0
 17 28  2  0
 28 29  1  0
 10 30  1  0
 30 31  2  0
 31  7  1  0
 29 11  1  0
 28 13  1  0
 27 19  1  0
 26 22  1  0
M  END
$$$$
CHEMBL77452_diffdock_6
     RDKit          3D

 31 35  0  0  0  0  0  0  0  0999 V2000
  -23.9900   13.4293  -26.1379 O   0  0  0  0  0  0  0  0  0  0  0  0
  -23.0714   12.4101  -26.4007 C   0  0  0  0  0  0  0  0  0  0  0  0
  -22.1252   12.3479  -25.2237 C   0  0  0  0  0  0  0  0  0  0  0  0
  -20.6815   12.4693  -25.6556 C   0  0  0  0  0  0  0  0  0  0  0  0
  -19.8773   11.3651  -25.2632 N   0  0  0  0  0  0  0  0  0  0  0  0
  -18.8120   11.6440  -24.3563 C   0  0  0  0  0  0  0  0  0  0  0  0
  -17.6547   12.2043  -25.1193 C   0  0  0  0  0  0  0  0  0  0  0  0
  -17.3380   13.5423  -25.1396 C   0  0  0  0  0  0  0  0  0  0  0  0
  -16.2486   14.0366  -25.8645 C   0  0  0  0  0  0  0  0  0  0  0  0
  -15.4709   13.1729  -26.5762 C   0  0  0  0  0  0  0  0  0  0  0  0
  -14.3166   13.6826  -27.3471 C   0  0  0  0  0  0  0  0  0  0  0  0
  -13.4349   12.9643  -28.1073 C   0  0  0  0  0  0  0  0  0  0  0  0
  -12.4547   13.6422  -28.7239 C   0  0  0  0  0  0  0  0  0  0  0  0
  -11.4637   13.1396  -29.5311 N   0  0  0  0  0  0  0  0  0  0  0  0
  -10.5442   13.9136  -30.0885 C   0  0  0  0  0  0  0  0  0  0  0  0
  -10.4758   15.2754  -29.9285 C   0  0  0  0  0  0  0  0  0  0  0  0
  -11.4466   15.8343  -29.1266 C   0  0  0  0  0  0  0  0  0  0  0  0
  -11.5497   17.1988  -28.8145 N   0  0  0  0  0  0  0  0  0  0  0  0
  -10.6316   18.1295  -29.3590 C   0  0  0  0  0  0  0  0  0  0  0  0
  -10.0271   19.0544  -28.5002 C   0  0  0  0  0  0  0  0  0  0  0  0
   -9.1032   19.9816  -28.9413 C   0  0  0  0  0  0  0  0  0  0  0  0
   -8.7523   20.0101  -30.2755 C   0  0  0  0  0  0  0  0  0  0  0  0
   -7.9013   20.7850  -30.9667 N   0  0  0  0  0  0  0  0  0  0  0  0
   -7.8917   20.4338  -32.2699 C   0  0  0  0  0  0  0  0  0  0  0  0
   -8.7843   19.3877  -32.3835 C   0  0  0  0  0  0  0  0  0  0  0  0
   -9.3323   19.1075  -31.1517 C   0  0  0  0  0  0  0  0  0  0  0  0
  -10.2550   18.1895  -30.6803 C   0  0  0  0  0  0  0  0  0  0  0  0
  -12.4142   14.9926  -28.5448 C   0  0  0  0  0  0  0  0  0  0  0  0
  -13.7462   15.2836  -27.5192 S   0  0  0  0  0  0  0  0  0  0  0  0
  -15.7943   11.8379  -26.5505 C   0  0  0  0  0  0  0  0  0  0  0  0
  -16.8487   11.3348  -25.8527 C   0  0  0  0  0  0  0  0  0  0  0  0
  1  2  1  0
  2  3  1  0
  3  4  1  0
  4  5  1  0
  5  6  1  0
  6  7  1  0
  7  8  2  0
  8  9  1  0
  9 10  2  0
 10 11  1  0
 11 12  2  0
 12 13  1  0
 13 14  2  0
 14 15  1  0
 15 16  2  0
 16 17  1  0
 17 18  1  0
 18 19  1  0
 19 20  2  0
 20 21  1  0
 21 22  2  0
 22 23  1  0
 23 24  1  0
 24 25  2  0
 25 26  1  0
 26 27  2  0
 17 28  2  0
 28 29  1  0
 10 30  1  0
 30 31  2  0
 31  7  1  0
 29 11  1  0
 28 13  1  0
 27 19  1  0
 26 22  1  0
M  END
$$$$
CHEMBL77452_diffdock_7
     RDKit          3D

 31 35  0  0  0  0  0  0  0  0999 V2000
  -23.8238   13.4681  -26.1437 O   0  0  0  0  0  0  0  0  0  0  0  0
  -22.7574   12.5761  -26.2801 C   0  0  0  0  0  0  0  0  0  0  0  0
  -21.7564   12.9087  -25.1974 C   0  0  0  0  0  0  0  0  0  0  0  0
  -20.5562   11.9903  -25.2398 C   0  0  0  0  0  0  0  0  0  0  0  0
  -19.5904   12.2725  -24.2360 N   0  0  0  0  0  0  0  0  0  0  0  0
  -18.4646   11.3986  -24.1724 C   0  0  0  0  0  0  0  0  0  0  0  0
  -17.3429   11.9883  -24.9657 C   0  0  0  0  0  0  0  0  0  0  0  0
  -16.9399   13.2979  -24.8492 C   0  0  0  0  0  0  0  0  0  0  0  0
  -15.8868   13.8210  -25.6066 C   0  0  0  0  0  0  0  0  0  0  0  0
  -15.2335   13.0153  -26.4907 C   0  0  0  0  0  0  0  0  0  0  0  0
  -14.1188   13.5561  -27.2978 C   0  0  0  0  0  0  0  0  0  0  0  0
  -13.2905   12.8725  -28.1453 C   0  0  0  0  0  0  0  0  0  0  0  0
  -12.3388   13.5744  -28.7795 C   0  0  0  0  0  0  0  0  0  0  0  0
  -11.4015   13.1079  -29.6684 N   0  0  0  0  0  0  0  0  0  0  0  0
  -10.5058   13.9029  -30.2348 C   0  0  0  0  0  0  0  0  0  0  0  0
  -10.4119   15.2531  -30.0054 C   0  0  0  0  0  0  0  0  0  0  0  0
  -11.3286   15.7761  -29.1200 C   0  0  0  0  0  0  0  0  0  0  0  0
  -11.3972   17.1222  -28.7290 N   0  0  0  0  0  0  0  0  0  0  0  0
  -10.4496   18.0575  -29.2116 C   0  0  0  0  0  0  0  0  0  0  0  0
   -9.8070   18.8946  -28.2926 C   0  0  0  0  0  0  0  0  0  0  0  0
   -8.8532   19.8186  -28.6725 C   0  0  0  0  0  0  0  0  0  0  0  0
   -8.5097   19.9330  -30.0040 C   0  0  0  0  0  0  0  0  0  0  0  0
   -7.6358   20.7262  -30.6439 N   0  0  0  0  0  0  0  0  0  0  0  0
   -7.6468   20.4719  -31.9694 C   0  0  0  0  0  0  0  0  0  0  0  0
   -8.5771   19.4693  -32.1517 C   0  0  0  0  0  0  0  0  0  0  0  0
   -9.1272   19.1185  -30.9390 C   0  0  0  0  0  0  0  0  0  0  0  0
  -10.0793   18.2015  -30.5282 C   0  0  0  0  0  0  0  0  0  0  0  0
  -12.2717   14.9125  -28.5300 C   0  0  0  0  0  0  0  0  0  0  0  0
  -13.5396   15.1589  -27.4153 S   0  0  0  0  0  0  0  0  0  0  0  0
  -15.6424   11.7084  -26.6010 C   0  0  0  0  0  0  0  0  0  0  0  0
  -16.6637   11.1781  -25.8746 C   0  0  0  0  0  0  0  0  0  0  0  0
  1  2  1  0
  2  3  1  0
  3  4  1  0
  4  5  1  0
  5  6  1  0
  6  7  1  0
  7  8  2  0
  8  9  1  0
  9 10  2  0
 10 11  1  0
 11 12  2  0
 12 13  1  0
 13 14  2  0
 14 15  1  0
 15 16  2  0
 16 17  1  0
 17 18  1  0
 18 19  1  0
 19 20  2  0
 20 21  1  0
 21 22  2  0
 22 23  1  0
 23 24  1  0
 24 25  2  0
 25 26  1  0
 26 27  2  0
 17 28  2  0
 28 29  1  0
 10 30  1  0
 30 31  2  0
 31  7  1  0
 29 11  1  0
 28 13  1  0
 27 19  1  0
 26 22  1  0
M  END
$$$$
CHEMBL77452_diffdock_8
     RDKit          3D

 31 35  0  0  0  0  0  0  0  0999 V2000
  -21.5779    7.3396  -25.2707 O   0  0  0  0  0  0  0  0  0  0  0  0
  -20.7248    7.5613  -24.1869 C   0  0  0  0  0  0  0  0  0  0  0  0
  -20.4690    9.0493  -24.1177 C   0  0  0  0  0  0  0  0  0  0  0  0
  -19.2101    9.4386  -24.8589 C   0  0  0  0  0  0  0  0  0  0  0  0
  -18.1277    9.7744  -24.0011 N   0  0  0  0  0  0  0  0  0  0  0  0
  -17.9681   11.1573  -23.6892 C   0  0  0  0  0  0  0  0  0  0  0  0
  -16.8994   11.7347  -24.5609 C   0  0  0  0  0  0  0  0  0  0  0  0
  -16.0872   10.9730  -25.3679 C   0  0  0  0  0  0  0  0  0  0  0  0
  -15.0946   11.5428  -26.1720 C   0  0  0  0  0  0  0  0  0  0  0  0
  -14.9192   12.8943  -26.1621 C   0  0  0  0  0  0  0  0  0  0  0  0
  -13.8731   13.5091  -27.0072 C   0  0  0  0  0  0  0  0  0  0  0  0
  -12.9508   12.8734  -27.7924 C   0  0  0  0  0  0  0  0  0  0  0  0
  -12.0897   13.6401  -28.4790 C   0  0  0  0  0  0  0  0  0  0  0  0
  -11.0869   13.2297  -29.3230 N   0  0  0  0  0  0  0  0  0  0  0  0
  -10.2945   14.0866  -29.9500 C   0  0  0  0  0  0  0  0  0  0  0  0
  -10.3807   15.4517  -29.8324 C   0  0  0  0  0  0  0  0  0  0  0  0
  -11.3704   15.9201  -28.9964 C   0  0  0  0  0  0  0  0  0  0  0  0
  -11.6195   17.2730  -28.7181 N   0  0  0  0  0  0  0  0  0  0  0  0
  -10.6763   18.2647  -29.0821 C   0  0  0  0  0  0  0  0  0  0  0  0
  -10.6488   19.4610  -28.3566 C   0  0  0  0  0  0  0  0  0  0  0  0
   -9.7472   20.4717  -28.6279 C   0  0  0  0  0  0  0  0  0  0  0  0
   -8.8331   20.3115  -29.6490 C   0  0  0  0  0  0  0  0  0  0  0  0
   -7.8631   21.1095  -30.1230 N   0  0  0  0  0  0  0  0  0  0  0  0
   -7.2172   20.5138  -31.1476 C   0  0  0  0  0  0  0  0  0  0  0  0
   -7.8237   19.2851  -31.3102 C   0  0  0  0  0  0  0  0  0  0  0  0
   -8.8339   19.1386  -30.3860 C   0  0  0  0  0  0  0  0  0  0  0  0
   -9.7493   18.1431  -30.0907 C   0  0  0  0  0  0  0  0  0  0  0  0
  -12.2012   14.9912  -28.3405 C   0  0  0  0  0  0  0  0  0  0  0  0
  -13.5063   15.1591  -27.2545 S   0  0  0  0  0  0  0  0  0  0  0  0
  -15.7348   13.6478  -25.3530 C   0  0  0  0  0  0  0  0  0  0  0  0
  -16.7064   13.1154  -24.5630 C   0  0  0  0  0  0  0  0  0  0  0  0
  1  2  1  0
  2  3  1  0
  3  4  1  0
  4  5  1  0
  5  6  1  0
  6  7  1  0
  7  8  2  0
  8  9  1  0
  9 10  2  0
 10 11  1  0
 11 12  2  0
 12 13  1  0
 13 14  2  0
 14 15  1  0
 15 16  2  0
 16 17  1  0
 17 18  1  0
 18 19  1  0
 19 20  2  0
 20 21  1  0
 21 22  2  0
 22 23  1  0
 23 24  1  0
 24 25  2  0
 25 26  1  0
 26 27  2  0
 17 28  2  0
 28 29  1  0
 10 30  1  0
 30 31  2  0
 31  7  1  0
 29 11  1  0
 28 13  1  0
 27 19  1  0
 26 22  1  0
M  END
$$$$
CHEMBL77452_diffdock_9
     RDKit          3D

 31 35  0  0  0  0  0  0  0  0999 V2000
  -22.9762    9.4673  -25.9820 O   0  0  0  0  0  0  0  0  0  0  0  0
  -22.5751   10.5313  -25.1704 C   0  0  0  0  0  0  0  0  0  0  0  0
  -21.2257   10.1685  -24.5940 C   0  0  0  0  0  0  0  0  0  0  0  0
  -20.6696   11.2738  -23.7253 C   0  0  0  0  0  0  0  0  0  0  0  0
  -19.5216   11.9052  -24.2761 N   0  0  0  0  0  0  0  0  0  0  0  0
  -18.2871   11.6874  -23.5951 C   0  0  0  0  0  0  0  0  0  0  0  0
  -17.1602   12.1277  -24.4735 C   0  0  0  0  0  0  0  0  0  0  0  0
  -16.4080   11.2612  -25.2314 C   0  0  0  0  0  0  0  0  0  0  0  0
  -15.3585   11.7038  -26.0433 C   0  0  0  0  0  0  0  0  0  0  0  0
  -15.0645   13.0337  -26.0914 C   0  0  0  0  0  0  0  0  0  0  0  0
  -13.9572   13.5145  -26.9453 C   0  0  0  0  0  0  0  0  0  0  0  0
  -13.1106   12.7673  -27.7174 C   0  0  0  0  0  0  0  0  0  0  0  0
  -12.1704   13.4222  -28.4160 C   0  0  0  0  0  0  0  0  0  0  0  0
  -11.2190   12.8891  -29.2507 N   0  0  0  0  0  0  0  0  0  0  0  0
  -10.3373   13.6422  -29.8913 C   0  0  0  0  0  0  0  0  0  0  0  0
  -10.2727   15.0104  -29.7981 C   0  0  0  0  0  0  0  0  0  0  0  0
  -11.2047   15.5997  -28.9723 C   0  0  0  0  0  0  0  0  0  0  0  0
  -11.3034   16.9765  -28.7185 N   0  0  0  0  0  0  0  0  0  0  0  0
  -10.3137   17.8668  -29.2018 C   0  0  0  0  0  0  0  0  0  0  0  0
   -9.7800   18.8158  -28.3228 C   0  0  0  0  0  0  0  0  0  0  0  0
   -8.7953   19.7069  -28.7028 C   0  0  0  0  0  0  0  0  0  0  0  0
   -8.3090   19.6729  -29.9936 C   0  0  0  0  0  0  0  0  0  0  0  0
   -7.3746   20.4026  -30.6236 N   0  0  0  0  0  0  0  0  0  0  0  0
   -7.2392   19.9969  -31.9037 C   0  0  0  0  0  0  0  0  0  0  0  0
   -8.1386   18.9633  -32.0671 C   0  0  0  0  0  0  0  0  0  0  0  0
   -8.8161   18.7450  -30.8883 C   0  0  0  0  0  0  0  0  0  0  0  0
   -9.8025   17.8645  -30.4785 C   0  0  0  0  0  0  0  0  0  0  0  0
  -12.1326   14.7797  -28.3016 C   0  0  0  0  0  0  0  0  0  0  0  0
  -13.4111   15.1094  -27.2211 S   0  0  0  0  0  0  0  0  0  0  0  0
  -15.8208   13.8925  -25.3311 C   0  0  0  0  0  0  0  0  0  0  0  0
  -16.8460   13.4847  -24.5346 C   0  0  0  0  0  0  0  0  0  0  0  0
  1  2  1  0
  2  3  1  0
  3  4  1  0
  4  5  1  0
  5  6  1  0
  6  7  1  0
  7  8  2  0
  8  9  1  0
  9 10  2  0
 10 11  1  0
 11 12  2  0
 12 13  1  0
 13 14  2  0
 14 15  1  0
 15 16  2  0
 16 17  1  0
 17 18  1  0
 18 19  1  0
 19 20  2  0
 20 21  1  0
 21 22  2  0
 22 23  1  0
 23 24  1  0
 24 25  2  0
 25 26  1  0
 26 27  2  0
 17 28  2  0
 28 29  1  0
 10 30  1  0
 30 31  2  0
 31  7  1  0
 29 11  1  0
 28 13  1  0
 27 19  1  0
 26 22  1  0
M  END
$$$$
CHEMBL77452_diffdock_10
     RDKit          3D

 31 35  0  0  0  0  0  0  0  0999 V2000
  -23.0700    8.7313  -25.5717 O   0  0  0  0  0  0  0  0  0  0  0  0
  -21.8717    9.1973  -26.1180 C   0  0  0  0  0  0  0  0  0  0  0  0
  -21.2048   10.0531  -25.0656 C   0  0  0  0  0  0  0  0  0  0  0  0
  -19.8725   10.5891  -25.5380 C   0  0  0  0  0  0  0  0  0  0  0  0
  -18.7708   10.1318  -24.7651 N   0  0  0  0  0  0  0  0  0  0  0  0
  -18.1059   11.1079  -23.9649 C   0  0  0  0  0  0  0  0  0  0  0  0
  -17.0358   11.7610  -24.7796 C   0  0  0  0  0  0  0  0  0  0  0  0
  -16.8524   13.1227  -24.8365 C   0  0  0  0  0  0  0  0  0  0  0  0
  -15.8420   13.7042  -25.6094 C   0  0  0  0  0  0  0  0  0  0  0  0
  -15.0082   12.9045  -26.3324 C   0  0  0  0  0  0  0  0  0  0  0  0
  -13.9363   13.5068  -27.1539 C   0  0  0  0  0  0  0  0  0  0  0  0
  -13.0167   12.8609  -27.9339 C   0  0  0  0  0  0  0  0  0  0  0  0
  -12.1288   13.6170  -28.5977 C   0  0  0  0  0  0  0  0  0  0  0  0
  -11.1229   13.1954  -29.4324 N   0  0  0  0  0  0  0  0  0  0  0  0
  -10.3026   14.0425  -30.0364 C   0  0  0  0  0  0  0  0  0  0  0  0
  -10.3604   15.4075  -29.9020 C   0  0  0  0  0  0  0  0  0  0  0  0
  -11.3518   15.8870  -29.0743 C   0  0  0  0  0  0  0  0  0  0  0  0
  -11.5751   17.2414  -28.7817 N   0  0  0  0  0  0  0  0  0  0  0  0
  -10.7873   18.2460  -29.3947 C   0  0  0  0  0  0  0  0  0  0  0  0
  -10.1927   19.2188  -28.5833 C   0  0  0  0  0  0  0  0  0  0  0  0
   -9.3903   20.2204  -29.0938 C   0  0  0  0  0  0  0  0  0  0  0  0
   -9.1562   20.2780  -30.4524 C   0  0  0  0  0  0  0  0  0  0  0  0
   -8.4344   21.1217  -31.2071 N   0  0  0  0  0  0  0  0  0  0  0  0
   -8.5047   20.7722  -32.5089 C   0  0  0  0  0  0  0  0  0  0  0  0
   -9.3127   19.6546  -32.5546 C   0  0  0  0  0  0  0  0  0  0  0  0
   -9.7299   19.3295  -31.2832 C   0  0  0  0  0  0  0  0  0  0  0  0
  -10.5294   18.3372  -30.7425 C   0  0  0  0  0  0  0  0  0  0  0  0
  -12.2125   14.9684  -28.4430 C   0  0  0  0  0  0  0  0  0  0  0  0
  -13.5295   15.1512  -27.3739 S   0  0  0  0  0  0  0  0  0  0  0  0
  -15.1983   11.5453  -26.2699 C   0  0  0  0  0  0  0  0  0  0  0  0
  -16.1739   10.9578  -25.5252 C   0  0  0  0  0  0  0  0  0  0  0  0
  1  2  1  0
  2  3  1  0
  3  4  1  0
  4  5  1  0
  5  6  1  0
  6  7  1  0
  7  8  2  0
  8  9  1  0
  9 10  2  0
 10 11  1  0
 11 12  2  0
 12 13  1  0
 13 14  2  0
 14 15  1  0
 15 16  2  0
 16 17  1  0
 17 18  1  0
 18 19  1  0
 19 20  2  0
 20 21  1  0
 21 22  2  0
 22 23  1  0
 23 24  1  0
 24 25  2  0
 25 26  1  0
 26 27  2  0
 17 28  2  0
 28 29  1  0
 10 30  1  0
 30 31  2  0
 31  7  1  0
 29 11  1  0
 28 13  1  0
 27 19  1  0
 26 22  1  0
M  END
$$$$
CHEMBL3741026_diffdock_1
     RDKit          3D

 42 45  0  0  0  0  0  0  0  0999 V2000
   -8.1809   15.8710  -33.7040 C   0  0  0  0  0  0  0  0  0  0  0  0
   -8.6725   16.6071  -32.8197 C   0  0  0  0  0  0  0  0  0  0  0  0
   -9.2227   17.4356  -31.8479 C   0  0  0  0  0  0  0  0  0  0  0  0
   -8.8430   18.7551  -31.6337 C   0  0  0  0  0  0  0  0  0  0  0  0
   -9.4003   19.4730  -30.6150 C   0  0  0  0  0  0  0  0  0  0  0  0
  -10.3677   18.9578  -29.7437 C   0  0  0  0  0  0  0  0  0  0  0  0
  -10.7492   17.6349  -29.9705 C   0  0  0  0  0  0  0  0  0  0  0  0
  -11.7188   17.0672  -29.0640 N   0  0  0  0  0  0  0  0  0  0  0  0
  -11.7014   15.7152  -28.6379 C   0  0  0  0  0  0  0  0  0  0  0  0
  -10.8665   14.8529  -29.1976 N   0  0  0  0  0  0  0  0  0  0  0  0
  -10.7881   13.5921  -28.7988 C   0  0  0  0  0  0  0  0  0  0  0  0
  -11.5801   13.1939  -27.7947 N   0  0  0  0  0  0  0  0  0  0  0  0
  -12.4380   14.0179  -27.1974 C   0  0  0  0  0  0  0  0  0  0  0  0
  -13.2585   13.6318  -26.1706 C   0  0  0  0  0  0  0  0  0  0  0  0
  -14.1188   14.4367  -25.5664 C   0  0  0  0  0  0  0  0  0  0  0  0
  -14.9267   13.9463  -24.5123 O   0  0  0  0  0  0  0  0  0  0  0  0
  -15.9642   13.0457  -24.9227 C   0  0  0  0  0  0  0  0  0  0  0  0
  -15.7489   12.4350  -26.2570 C   0  0  0  0  0  0  0  0  0  0  0  0
  -15.8075   11.0570  -26.3558 O   0  0  0  0  0  0  0  0  0  0  0  0
  -16.8605   10.3308  -26.9206 C   0  0  0  0  0  0  0  0  0  0  0  0
  -16.7956    9.9434  -28.0700 O   0  0  0  0  0  0  0  0  0  0  0  0
  -18.0827   10.0097  -26.1177 C   0  0  1  0  0  0  0  0  0  0  0  0
  -19.3032    9.7675  -26.9309 C   0  0  0  0  0  0  0  0  0  0  0  0
  -17.7590    9.0305  -25.0906 C   0  0  0  0  0  0  0  0  0  0  0  0
  -17.3187    7.7417  -25.4252 C   0  0  0  0  0  0  0  0  0  0  0  0
  -17.0947    6.8584  -24.4213 C   0  0  0  0  0  0  0  0  0  0  0  0
  -17.2704    7.1246  -23.0967 C   0  0  0  0  0  0  0  0  0  0  0  0
  -17.2061    6.1604  -21.9890 C   0  0  0  0  0  0  0  0  0  0  0  0
  -16.0611    5.2114  -21.9117 C   0  0  0  0  0  0  0  0  0  0  0  0
  -15.5743    5.2724  -20.4428 C   0  0  0  0  0  0  0  0  0  0  0  0
  -16.7338    3.7996  -22.0243 C   0  0  0  0  0  0  0  0  0  0  0  0
  -17.7067    8.4317  -22.7773 C   0  0  0  0  0  0  0  0  0  0  0  0
  -17.9370    9.3410  -23.7616 C   0  0  0  0  0  0  0  0  0  0  0  0
  -14.2752   15.7792  -25.9275 C   0  0  0  0  0  0  0  0  0  0  0  0
  -15.1722   16.5735  -25.3029 O   0  0  0  0  0  0  0  0  0  0  0  0
  -14.8111   17.7991  -24.7199 C   0  0  0  0  0  0  0  0  0  0  0  0
  -15.8694   18.5752  -24.0422 C   0  0  0  0  0  0  0  0  0  0  0  0
  -15.4278   19.7272  -23.5236 O   0  0  0  0  0  0  0  0  0  0  0  0
  -16.2677   20.5962  -22.8972 C   0  0  0  0  0  0  0  0  0  0  0  0
  -13.4232   16.1652  -26.9801 C   0  0  0  0  0  0  0  0  0  0  0  0
  -12.5402   15.3642  -27.6085 C   0  0  0  0  0  0  0  0  0  0  0  0
  -10.2068   16.9088  -30.9616 C   0  0  0  0  0  0  0  0  0  0  0  0
  1  2  3  0
  2  3  1  0
  3  4  2  0
  4  5  1  0
  5  6  2  0
  6  7  1  0
  7  8  1  0
  8  9  1  0
  9 10  2  0
 10 11  1  0
 11 12  2  0
 12 13  1  0
 13 14  2  0
 14 15  1  0
 15 16  1  0
 16 17  1  0
 17 18  1  0
 18 19  1  0
 19 20  1  0
 20 21  2  0
 20 22  1  0
 22 23  1  6
 22 24  1  0
 24 25  2  0
 25 26  1  0
 26 27  2  0
 27 28  1  0
 28 29  1  0
 29 30  1  0
 29 31  1  0
 27 32  1  0
 32 33  2  0
 15 34  2  0
 34 35  1  0
 35 36  1  0
 36 37  1  0
 37 38  1  0
 38 39  1  0
 34 40  1  0
 40 41  2  0
  7 42  2  0
 42  3  1  0
 41  9  1  0
 41 13  1  0
 33 24  1  0
M  END
$$$$
CHEMBL3741026_diffdock_2
     RDKit          3D

 42 45  0  0  0  0  0  0  0  0999 V2000
   -6.3575   20.5993  -28.3021 C   0  0  0  0  0  0  0  0  0  0  0  0
   -7.0715   19.7537  -28.8859 C   0  0  0  0  0  0  0  0  0  0  0  0
   -7.8750   18.8253  -29.5384 C   0  0  0  0  0  0  0  0  0  0  0  0
   -7.7251   18.4541  -30.8692 C   0  0  0  0  0  0  0  0  0  0  0  0
   -8.6009   17.5761  -31.4398 C   0  0  0  0  0  0  0  0  0  0  0  0
   -9.6742   16.9963  -30.7524 C   0  0  0  0  0  0  0  0  0  0  0  0
   -9.8130   17.3680  -29.4147 C   0  0  0  0  0  0  0  0  0  0  0  0
  -10.9329   16.8128  -28.6924 N   0  0  0  0  0  0  0  0  0  0  0  0
  -11.3976   15.4841  -28.8603 C   0  0  0  0  0  0  0  0  0  0  0  0
  -10.6049   14.5649  -29.3900 N   0  0  0  0  0  0  0  0  0  0  0  0
  -10.9851   13.3030  -29.5239 C   0  0  0  0  0  0  0  0  0  0  0  0
  -12.2093   12.9610  -29.1014 N   0  0  0  0  0  0  0  0  0  0  0  0
  -13.0471   13.8442  -28.5628 C   0  0  0  0  0  0  0  0  0  0  0  0
  -14.3036   13.5171  -28.1261 C   0  0  0  0  0  0  0  0  0  0  0  0
  -15.1506   14.3821  -27.5900 C   0  0  0  0  0  0  0  0  0  0  0  0
  -16.4307   13.9500  -27.1671 O   0  0  0  0  0  0  0  0  0  0  0  0
  -16.4260   12.7643  -26.3608 C   0  0  0  0  0  0  0  0  0  0  0  0
  -17.7462   12.4150  -25.7824 C   0  0  0  0  0  0  0  0  0  0  0  0
  -17.9398   11.1168  -25.3472 O   0  0  0  0  0  0  0  0  0  0  0  0
  -17.5053    9.9671  -26.0139 C   0  0  0  0  0  0  0  0  0  0  0  0
  -16.5319   10.0058  -26.7394 O   0  0  0  0  0  0  0  0  0  0  0  0
  -18.2256    8.6661  -25.8397 C   0  0  1  0  0  0  0  0  0  0  0  0
  -17.7441    7.5761  -26.7284 C   0  0  0  0  0  0  0  0  0  0  0  0
  -18.3646    8.3613  -24.4234 C   0  0  0  0  0  0  0  0  0  0  0  0
  -19.5750    7.8899  -23.8947 C   0  0  0  0  0  0  0  0  0  0  0  0
  -19.6555    7.6853  -22.5568 C   0  0  0  0  0  0  0  0  0  0  0  0
  -18.6431    7.9089  -21.6730 C   0  0  0  0  0  0  0  0  0  0  0  0
  -18.7295    7.8661  -20.2062 C   0  0  0  0  0  0  0  0  0  0  0  0
  -19.9784    7.3736  -19.5618 C   0  0  0  0  0  0  0  0  0  0  0  0
  -19.9432    5.8334  -19.7196 C   0  0  0  0  0  0  0  0  0  0  0  0
  -19.7263    7.5984  -18.0307 C   0  0  0  0  0  0  0  0  0  0  0  0
  -17.4273    8.3760  -22.2248 C   0  0  0  0  0  0  0  0  0  0  0  0
  -17.3145    8.5879  -23.5631 C   0  0  0  0  0  0  0  0  0  0  0  0
  -14.8376   15.7348  -27.4187 C   0  0  0  0  0  0  0  0  0  0  0  0
  -15.7279   16.5980  -26.8821 O   0  0  0  0  0  0  0  0  0  0  0  0
  -15.3478   17.8552  -26.3844 C   0  0  0  0  0  0  0  0  0  0  0  0
  -16.4095   18.7311  -25.8487 C   0  0  0  0  0  0  0  0  0  0  0  0
  -16.0869   19.2950  -24.6787 O   0  0  0  0  0  0  0  0  0  0  0  0
  -15.2548   20.3702  -24.6101 C   0  0  0  0  0  0  0  0  0  0  0  0
  -13.5422   16.0574  -27.8664 C   0  0  0  0  0  0  0  0  0  0  0  0
  -12.6638   15.1943  -28.4137 C   0  0  0  0  0  0  0  0  0  0  0  0
   -8.9674   18.2369  -28.8370 C   0  0  0  0  0  0  0  0  0  0  0  0
  1  2  3  0
  2  3  1  0
  3  4  2  0
  4  5  1  0
  5  6  2  0
  6  7  1  0
  7  8  1  0
  8  9  1  0
  9 10  2  0
 10 11  1  0
 11 12  2  0
 12 13  1  0
 13 14  2  0
 14 15  1  0
 15 16  1  0
 16 17  1  0
 17 18  1  0
 18 19  1  0
 19 20  1  0
 20 21  2  0
 20 22  1  0
 22 23  1  6
 22 24  1  0
 24 25  2  0
 25 26  1  0
 26 27  2  0
 27 28  1  0
 28 29  1  0
 29 30  1  0
 29 31  1  0
 27 32  1  0
 32 33  2  0
 15 34  2  0
 34 35  1  0
 35 36  1  0
 36 37  1  0
 37 38  1  0
 38 39  1  0
 34 40  1  0
 40 41  2  0
  7 42  2  0
 42  3  1  0
 41  9  1  0
 41 13  1  0
 33 24  1  0
M  END
$$$$
CHEMBL3741026_diffdock_3
     RDKit          3D

 42 45  0  0  0  0  0  0  0  0999 V2000
   -8.7537   17.8224  -34.4721 C   0  0  0  0  0  0  0  0  0  0  0  0
   -8.9354   18.2035  -33.2943 C   0  0  0  0  0  0  0  0  0  0  0  0
   -9.1221   18.6295  -31.9840 C   0  0  0  0  0  0  0  0  0  0  0  0
   -8.5273   19.7579  -31.4323 C   0  0  0  0  0  0  0  0  0  0  0  0
   -8.7246   20.0642  -30.1167 C   0  0  0  0  0  0  0  0  0  0  0  0
   -9.5184   19.2983  -29.2542 C   0  0  0  0  0  0  0  0  0  0  0  0
  -10.1183   18.1717  -29.8178 C   0  0  0  0  0  0  0  0  0  0  0  0
  -10.9131   17.3441  -28.9415 N   0  0  0  0  0  0  0  0  0  0  0  0
  -11.0961   15.9505  -29.1262 C   0  0  0  0  0  0  0  0  0  0  0  0
  -10.2328   15.2576  -29.8530 N   0  0  0  0  0  0  0  0  0  0  0  0
  -10.3433   13.9473  -30.0140 C   0  0  0  0  0  0  0  0  0  0  0  0
  -11.3615   13.3180  -29.4128 N   0  0  0  0  0  0  0  0  0  0  0  0
  -12.2583   13.9652  -28.6721 C   0  0  0  0  0  0  0  0  0  0  0  0
  -13.3081   13.3424  -28.0502 C   0  0  0  0  0  0  0  0  0  0  0  0
  -14.2103   13.9699  -27.3118 C   0  0  0  0  0  0  0  0  0  0  0  0
  -15.2620   13.2400  -26.7073 O   0  0  0  0  0  0  0  0  0  0  0  0
  -15.0982   11.8159  -26.7401 C   0  0  0  0  0  0  0  0  0  0  0  0
  -16.2383   11.0577  -26.1702 C   0  0  0  0  0  0  0  0  0  0  0  0
  -17.0181   11.6820  -25.2140 O   0  0  0  0  0  0  0  0  0  0  0  0
  -18.1687   11.1425  -24.6306 C   0  0  0  0  0  0  0  0  0  0  0  0
  -18.5877   10.0580  -24.9822 O   0  0  0  0  0  0  0  0  0  0  0  0
  -18.9001   11.8864  -23.5567 C   0  0  1  0  0  0  0  0  0  0  0  0
  -19.0616   11.1285  -22.2882 C   0  0  0  0  0  0  0  0  0  0  0  0
  -18.3932   13.2475  -23.4620 C   0  0  0  0  0  0  0  0  0  0  0  0
  -17.3192   13.5682  -22.6191 C   0  0  0  0  0  0  0  0  0  0  0  0
  -16.9373   14.8661  -22.5304 C   0  0  0  0  0  0  0  0  0  0  0  0
  -17.5245   15.8976  -23.1993 C   0  0  0  0  0  0  0  0  0  0  0  0
  -17.2624   17.3317  -23.0109 C   0  0  0  0  0  0  0  0  0  0  0  0
  -17.9647   18.3223  -23.8728 C   0  0  0  0  0  0  0  0  0  0  0  0
  -17.4436   19.7075  -23.4164 C   0  0  0  0  0  0  0  0  0  0  0  0
  -17.3115   18.1237  -25.2843 C   0  0  0  0  0  0  0  0  0  0  0  0
  -18.6004   15.5546  -24.0511 C   0  0  0  0  0  0  0  0  0  0  0  0
  -19.0048   14.2613  -24.1637 C   0  0  0  0  0  0  0  0  0  0  0  0
  -14.1772   15.3517  -27.0956 C   0  0  0  0  0  0  0  0  0  0  0  0
  -15.1203   15.9675  -26.3493 O   0  0  0  0  0  0  0  0  0  0  0  0
  -15.1883   15.8193  -24.9544 C   0  0  0  0  0  0  0  0  0  0  0  0
  -16.0311   16.7715  -24.2031 C   0  0  0  0  0  0  0  0  0  0  0  0
  -16.0641   16.5223  -22.8886 O   0  0  0  0  0  0  0  0  0  0  0  0
  -14.9696   16.7044  -22.1000 C   0  0  0  0  0  0  0  0  0  0  0  0
  -13.0913   15.9795  -27.7354 C   0  0  0  0  0  0  0  0  0  0  0  0
  -12.1615   15.3614  -28.4901 C   0  0  0  0  0  0  0  0  0  0  0  0
   -9.9300   17.8481  -31.1075 C   0  0  0  0  0  0  0  0  0  0  0  0
  1  2  3  0
  2  3  1  0
  3  4  2  0
  4  5  1  0
  5  6  2  0
  6  7  1  0
  7  8  1  0
  8  9  1  0
  9 10  2  0
 10 11  1  0
 11 12  2  0
 12 13  1  0
 13 14  2  0
 14 15  1  0
 15 16  1  0
 16 17  1  0
 17 18  1  0
 18 19  1  0
 19 20  1  0
 20 21  2  0
 20 22  1  0
 22 23  1  1
 22 24  1  0
 24 25  2  0
 25 26  1  0
 26 27  2  0
 27 28  1  0
 28 29  1  0
 29 30  1  0
 29 31  1  0
 27 32  1  0
 32 33  2  0
 15 34  2  0
 34 35  1  0
 35 36  1  0
 36 37  1  0
 37 38  1  0
 38 39  1  0
 34 40  1  0
 40 41  2  0
  7 42  2  0
 42  3  1  0
 41  9  1  0
 41 13  1  0
 33 24  1  0
M  END
$$$$
CHEMBL3741026_diffdock_4
     RDKit          3D

 42 45  0  0  0  0  0  0  0  0999 V2000
   -6.4499   20.7872  -30.1410 C   0  0  0  0  0  0  0  0  0  0  0  0
   -7.4008   20.0760  -30.5352 C   0  0  0  0  0  0  0  0  0  0  0  0
   -8.4593   19.2949  -30.9857 C   0  0  0  0  0  0  0  0  0  0  0  0
   -8.8455   19.1870  -32.3163 C   0  0  0  0  0  0  0  0  0  0  0  0
   -9.9364   18.4399  -32.6560 C   0  0  0  0  0  0  0  0  0  0  0  0
  -10.7179   17.7436  -31.7260 C   0  0  0  0  0  0  0  0  0  0  0  0
  -10.3189   17.8508  -30.3933 C   0  0  0  0  0  0  0  0  0  0  0  0
  -11.1286   17.1720  -29.4094 N   0  0  0  0  0  0  0  0  0  0  0  0
  -11.2743   15.7634  -29.3455 C   0  0  0  0  0  0  0  0  0  0  0  0
  -10.5379   14.9834  -30.1222 N   0  0  0  0  0  0  0  0  0  0  0  0
  -10.6121   13.6621  -30.0624 C   0  0  0  0  0  0  0  0  0  0  0  0
  -11.4585   13.1135  -29.1810 N   0  0  0  0  0  0  0  0  0  0  0  0
  -12.2226   13.8498  -28.3774 C   0  0  0  0  0  0  0  0  0  0  0  0
  -13.0962   13.3102  -27.4705 C   0  0  0  0  0  0  0  0  0  0  0  0
  -13.8650   14.0267  -26.6652 C   0  0  0  0  0  0  0  0  0  0  0  0
  -14.7386   13.3786  -25.7589 O   0  0  0  0  0  0  0  0  0  0  0  0
  -15.2071   12.0950  -26.1935 C   0  0  0  0  0  0  0  0  0  0  0  0
  -15.9825   11.3509  -25.1714 C   0  0  0  0  0  0  0  0  0  0  0  0
  -16.9188   10.4327  -25.6102 O   0  0  0  0  0  0  0  0  0  0  0  0
  -17.8037    9.7254  -24.7905 C   0  0  0  0  0  0  0  0  0  0  0  0
  -17.6730    9.7424  -23.5831 O   0  0  0  0  0  0  0  0  0  0  0  0
  -18.9329    8.9419  -25.3843 C   0  0  1  0  0  0  0  0  0  0  0  0
  -19.4409    7.8469  -24.5168 C   0  0  0  0  0  0  0  0  0  0  0  0
  -19.9155    9.8470  -25.9621 C   0  0  0  0  0  0  0  0  0  0  0  0
  -20.4186    9.6470  -27.2558 C   0  0  0  0  0  0  0  0  0  0  0  0
  -21.2839   10.5623  -27.7574 C   0  0  0  0  0  0  0  0  0  0  0  0
  -21.7052   11.6779  -27.0984 C   0  0  0  0  0  0  0  0  0  0  0  0
  -22.5021   12.7807  -27.6549 C   0  0  0  0  0  0  0  0  0  0  0  0
  -23.6657   13.3021  -26.8857 C   0  0  0  0  0  0  0  0  0  0  0  0
  -23.0564   14.1497  -25.7417 C   0  0  0  0  0  0  0  0  0  0  0  0
  -24.3026   14.3684  -27.8426 C   0  0  0  0  0  0  0  0  0  0  0  0
  -21.1943   11.8591  -25.7920 C   0  0  0  0  0  0  0  0  0  0  0  0
  -20.3271   10.9569  -25.2600 C   0  0  0  0  0  0  0  0  0  0  0  0
  -13.8593   15.4256  -26.6663 C   0  0  0  0  0  0  0  0  0  0  0  0
  -14.6661   16.1308  -25.8433 O   0  0  0  0  0  0  0  0  0  0  0  0
  -14.1687   17.0878  -24.9438 C   0  0  0  0  0  0  0  0  0  0  0  0
  -15.1484   17.8974  -24.1913 C   0  0  0  0  0  0  0  0  0  0  0  0
  -15.8862   18.6935  -24.9743 O   0  0  0  0  0  0  0  0  0  0  0  0
  -15.7778   20.0492  -24.9178 C   0  0  0  0  0  0  0  0  0  0  0  0
  -12.9542   15.9680  -27.5986 C   0  0  0  0  0  0  0  0  0  0  0  0
  -12.1620   15.2590  -28.4268 C   0  0  0  0  0  0  0  0  0  0  0  0
   -9.2540   18.5875  -30.0372 C   0  0  0  0  0  0  0  0  0  0  0  0
  1  2  3  0
  2  3  1  0
  3  4  2  0
  4  5  1  0
  5  6  2  0
  6  7  1  0
  7  8  1  0
  8  9  1  0
  9 10  2  0
 10 11  1  0
 11 12  2  0
 12 13  1  0
 13 14  2  0
 14 15  1  0
 15 16  1  0
 16 17  1  0
 17 18  1  0
 18 19  1  0
 19 20  1  0
 20 21  2  0
 20 22  1  0
 22 23  1  1
 22 24  1  0
 24 25  2  0
 25 26  1  0
 26 27  2  0
 27 28  1  0
 28 29  1  0
 29 30  1  0
 29 31  1  0
 27 32  1  0
 32 33  2  0
 15 34  2  0
 34 35  1  0
 35 36  1  0
 36 37  1  0
 37 38  1  0
 38 39  1  0
 34 40  1  0
 40 41  2  0
  7 42  2  0
 42  3  1  0
 41  9  1  0
 41 13  1  0
 33 24  1  0
M  END
$$$$
CHEMBL3741026_diffdock_5
     RDKit          3D

 42 45  0  0  0  0  0  0  0  0999 V2000
  -19.1848   15.7319  -22.9597 C   0  0  0  0  0  0  0  0  0  0  0  0
  -18.3723   14.9935  -23.5598 C   0  0  0  0  0  0  0  0  0  0  0  0
  -17.4780   14.1741  -24.2397 C   0  0  0  0  0  0  0  0  0  0  0  0
  -17.5063   12.7850  -24.2097 C   0  0  0  0  0  0  0  0  0  0  0  0
  -16.5487   12.0646  -24.8637 C   0  0  0  0  0  0  0  0  0  0  0  0
  -15.5064   12.6471  -25.5951 C   0  0  0  0  0  0  0  0  0  0  0  0
  -15.4898   14.0420  -25.6268 C   0  0  0  0  0  0  0  0  0  0  0  0
  -14.4049   14.6689  -26.3439 N   0  0  0  0  0  0  0  0  0  0  0  0
  -13.5076   13.9659  -27.1866 C   0  0  0  0  0  0  0  0  0  0  0  0
  -13.5948   12.6492  -27.2985 N   0  0  0  0  0  0  0  0  0  0  0  0
  -12.8045   11.9597  -28.1079 C   0  0  0  0  0  0  0  0  0  0  0  0
  -11.8984   12.6295  -28.8320 N   0  0  0  0  0  0  0  0  0  0  0  0
  -11.7670   13.9520  -28.7577 C   0  0  0  0  0  0  0  0  0  0  0  0
  -10.8463   14.6569  -29.4873 C   0  0  0  0  0  0  0  0  0  0  0  0
  -10.7002   15.9714  -29.4247 C   0  0  0  0  0  0  0  0  0  0  0  0
   -9.7191   16.6131  -30.2184 O   0  0  0  0  0  0  0  0  0  0  0  0
   -8.3665   16.2602  -29.8991 C   0  0  0  0  0  0  0  0  0  0  0  0
   -7.4803   17.4195  -29.6338 C   0  0  0  0  0  0  0  0  0  0  0  0
   -6.3507   17.5644  -30.4181 O   0  0  0  0  0  0  0  0  0  0  0  0
   -6.0284   18.6982  -31.1703 C   0  0  0  0  0  0  0  0  0  0  0  0
   -6.6975   19.7080  -31.0809 O   0  0  0  0  0  0  0  0  0  0  0  0
   -4.8489   18.6920  -32.0923 C   0  0  1  0  0  0  0  0  0  0  0  0
   -5.1529   19.1357  -33.4781 C   0  0  0  0  0  0  0  0  0  0  0  0
   -3.7006   19.2970  -31.4338 C   0  0  0  0  0  0  0  0  0  0  0  0
   -3.4608   20.6768  -31.5087 C   0  0  0  0  0  0  0  0  0  0  0  0
   -2.3391   21.1666  -30.9255 C   0  0  0  0  0  0  0  0  0  0  0  0
   -1.4118   20.4152  -30.2686 C   0  0  0  0  0  0  0  0  0  0  0  0
   -0.1050   20.8677  -29.7701 C   0  0  0  0  0  0  0  0  0  0  0  0
    0.4437   22.1711  -30.2367 C   0  0  0  0  0  0  0  0  0  0  0  0
    1.7169   22.4093  -29.3878 C   0  0  0  0  0  0  0  0  0  0  0  0
    1.0020   21.8544  -31.6672 C   0  0  0  0  0  0  0  0  0  0  0  0
   -1.6741   19.0272  -30.1956 C   0  0  0  0  0  0  0  0  0  0  0  0
   -2.7920   18.5062  -30.7679 C   0  0  0  0  0  0  0  0  0  0  0  0
  -11.4837   16.7773  -28.5918 C   0  0  0  0  0  0  0  0  0  0  0  0
  -11.3020   18.1151  -28.5374 O   0  0  0  0  0  0  0  0  0  0  0  0
  -11.7589   18.8912  -27.4598 C   0  0  0  0  0  0  0  0  0  0  0  0
  -11.5783   20.3548  -27.5425 C   0  0  0  0  0  0  0  0  0  0  0  0
  -10.3600   20.7576  -27.1623 O   0  0  0  0  0  0  0  0  0  0  0  0
  -10.0204   20.8609  -25.8481 C   0  0  0  0  0  0  0  0  0  0  0  0
  -12.4292   16.0422  -27.8513 C   0  0  0  0  0  0  0  0  0  0  0  0
  -12.5962   14.7057  -27.8997 C   0  0  0  0  0  0  0  0  0  0  0  0
  -16.4174   14.7691  -24.9830 C   0  0  0  0  0  0  0  0  0  0  0  0
  1  2  3  0
  2  3  1  0
  3  4  2  0
  4  5  1  0
  5  6  2  0
  6  7  1  0
  7  8  1  0
  8  9  1  0
  9 10  2  0
 10 11  1  0
 11 12  2  0
 12 13  1  0
 13 14  2  0
 14 15  1  0
 15 16  1  0
 16 17  1  0
 17 18  1  0
 18 19  1  0
 19 20  1  0
 20 21  2  0
 20 22  1  0
 22 23  1  6
 22 24  1  0
 24 25  2  0
 25 26  1  0
 26 27  2  0
 27 28  1  0
 28 29  1  0
 29 30  1  0
 29 31  1  0
 27 32  1  0
 32 33  2  0
 15 34  2  0
 34 35  1  0
 35 36  1  0
 36 37  1  0
 37 38  1  0
 38 39  1  0
 34 40  1  0
 40 41  2  0
  7 42  2  0
 42  3  1  0
 41  9  1  0
 41 13  1  0
 33 24  1  0
M  END
$$$$
CHEMBL3741026_diffdock_6
     RDKit          3D

 42 45  0  0  0  0  0  0  0  0999 V2000
  -18.2669    8.1851  -24.9468 C   0  0  0  0  0  0  0  0  0  0  0  0
  -17.3439    8.7454  -25.5790 C   0  0  0  0  0  0  0  0  0  0  0  0
  -16.3231    9.3610  -26.2947 C   0  0  0  0  0  0  0  0  0  0  0  0
  -15.3027    8.6820  -26.9499 C   0  0  0  0  0  0  0  0  0  0  0  0
  -14.3097    9.3762  -27.5788 C   0  0  0  0  0  0  0  0  0  0  0  0
  -14.2479   10.7745  -27.6181 C   0  0  0  0  0  0  0  0  0  0  0  0
  -15.2802   11.4486  -26.9648 C   0  0  0  0  0  0  0  0  0  0  0  0
  -15.2214   12.8910  -26.9591 N   0  0  0  0  0  0  0  0  0  0  0  0
  -14.1270   13.6366  -27.4651 C   0  0  0  0  0  0  0  0  0  0  0  0
  -13.1962   13.0392  -28.1935 N   0  0  0  0  0  0  0  0  0  0  0  0
  -12.1814   13.7077  -28.7212 C   0  0  0  0  0  0  0  0  0  0  0  0
  -12.1115   15.0280  -28.5066 N   0  0  0  0  0  0  0  0  0  0  0  0
  -13.0186   15.6786  -27.7816 C   0  0  0  0  0  0  0  0  0  0  0  0
  -12.9656   17.0274  -27.5478 C   0  0  0  0  0  0  0  0  0  0  0  0
  -13.8574   17.6905  -26.8280 C   0  0  0  0  0  0  0  0  0  0  0  0
  -13.7189   19.0870  -26.6410 O   0  0  0  0  0  0  0  0  0  0  0  0
  -13.0164   19.7647  -27.6913 C   0  0  0  0  0  0  0  0  0  0  0  0
  -12.8832   21.2281  -27.4904 C   0  0  0  0  0  0  0  0  0  0  0  0
  -11.8906   21.8903  -28.1892 O   0  0  0  0  0  0  0  0  0  0  0  0
  -10.5269   21.8591  -27.8819 C   0  0  0  0  0  0  0  0  0  0  0  0
  -10.1460   22.0610  -26.7464 O   0  0  0  0  0  0  0  0  0  0  0  0
   -9.5121   21.5679  -28.9435 C   0  0  1  0  0  0  0  0  0  0  0  0
   -8.3337   22.4740  -28.9290 C   0  0  0  0  0  0  0  0  0  0  0  0
   -9.2538   20.1368  -29.0045 C   0  0  0  0  0  0  0  0  0  0  0  0
   -9.3481   19.3298  -27.8614 C   0  0  0  0  0  0  0  0  0  0  0  0
   -9.0333   18.0160  -27.9746 C   0  0  0  0  0  0  0  0  0  0  0  0
   -8.6225   17.4103  -29.1238 C   0  0  0  0  0  0  0  0  0  0  0  0
   -8.1103   16.0394  -29.2618 C   0  0  0  0  0  0  0  0  0  0  0  0
   -9.0454   14.9448  -29.6424 C   0  0  0  0  0  0  0  0  0  0  0  0
   -8.1690   13.6721  -29.7458 C   0  0  0  0  0  0  0  0  0  0  0  0
   -9.8961   14.7085  -28.3467 C   0  0  0  0  0  0  0  0  0  0  0  0
   -8.5412   18.2375  -30.2683 C   0  0  0  0  0  0  0  0  0  0  0  0
   -8.8533   19.5584  -30.1874 C   0  0  0  0  0  0  0  0  0  0  0  0
  -14.9546   17.0652  -26.2263 C   0  0  0  0  0  0  0  0  0  0  0  0
  -15.8408   17.7652  -25.4845 O   0  0  0  0  0  0  0  0  0  0  0  0
  -15.5072   18.3110  -24.2342 C   0  0  0  0  0  0  0  0  0  0  0  0
  -16.4344   19.2994  -23.6470 C   0  0  0  0  0  0  0  0  0  0  0  0
  -15.8605   20.0735  -22.7184 O   0  0  0  0  0  0  0  0  0  0  0  0
  -15.1192   19.5442  -21.7068 C   0  0  0  0  0  0  0  0  0  0  0  0
  -15.0008   15.6806  -26.4780 C   0  0  0  0  0  0  0  0  0  0  0  0
  -14.1059   14.9857  -27.2076 C   0  0  0  0  0  0  0  0  0  0  0  0
  -16.2617   10.7845  -26.3329 C   0  0  0  0  0  0  0  0  0  0  0  0
  1  2  3  0
  2  3  1  0
  3  4  2  0
  4  5  1  0
  5  6  2  0
  6  7  1  0
  7  8  1  0
  8  9  1  0
  9 10  2  0
 10 11  1  0
 11 12  2  0
 12 13  1  0
 13 14  2  0
 14 15  1  0
 15 16  1  0
 16 17  1  0
 17 18  1  0
 18 19  1  0
 19 20  1  0
 20 21  2  0
 20 22  1  0
 22 23  1  1
 22 24  1  0
 24 25  2  0
 25 26  1  0
 26 27  2  0
 27 28  1  0
 28 29  1  0
 29 30  1  0
 29 31  1  0
 27 32  1  0
 32 33  2  0
 15 34  2  0
 34 35  1  0
 35 36  1  0
 36 37  1  0
 37 38  1  0
 38 39  1  0
 34 40  1  0
 40 41  2  0
  7 42  2  0
 42  3  1  0
 41  9  1  0
 41 13  1  0
 33 24  1  0
M  END
$$$$
CHEMBL3741026_diffdock_7
     RDKit          3D

 42 45  0  0  0  0  0  0  0  0999 V2000
   -5.4054   17.9888  -30.5180 C   0  0  0  0  0  0  0  0  0  0  0  0
   -6.6266   18.2528  -30.4516 C   0  0  0  0  0  0  0  0  0  0  0  0
   -7.9804   18.5614  -30.3793 C   0  0  0  0  0  0  0  0  0  0  0  0
   -8.5534   19.7119  -30.9078 C   0  0  0  0  0  0  0  0  0  0  0  0
   -9.8854   19.9567  -30.7358 C   0  0  0  0  0  0  0  0  0  0  0  0
  -10.7479   19.0962  -30.0458 C   0  0  0  0  0  0  0  0  0  0  0  0
  -10.1664   17.9396  -29.5251 C   0  0  0  0  0  0  0  0  0  0  0  0
  -11.0259   17.0524  -28.7778 N   0  0  0  0  0  0  0  0  0  0  0  0
  -10.9973   15.6404  -28.8999 C   0  0  0  0  0  0  0  0  0  0  0  0
  -10.1240   15.0611  -29.7096 N   0  0  0  0  0  0  0  0  0  0  0  0
  -10.0353   13.7439  -29.8195 C   0  0  0  0  0  0  0  0  0  0  0  0
  -10.8571   12.9887  -29.0789 N   0  0  0  0  0  0  0  0  0  0  0  0
  -11.7540   13.5182  -28.2500 C   0  0  0  0  0  0  0  0  0  0  0  0
  -12.6054   12.7654  -27.4851 C   0  0  0  0  0  0  0  0  0  0  0  0
  -13.5046   13.2746  -26.6573 C   0  0  0  0  0  0  0  0  0  0  0  0
  -14.3423   12.4151  -25.9064 O   0  0  0  0  0  0  0  0  0  0  0  0
  -15.5065   11.9538  -26.6049 C   0  0  0  0  0  0  0  0  0  0  0  0
  -16.4771   11.2218  -25.7554 C   0  0  0  0  0  0  0  0  0  0  0  0
  -16.4915    9.8411  -25.8307 O   0  0  0  0  0  0  0  0  0  0  0  0
  -17.4115    9.0058  -25.1896 C   0  0  0  0  0  0  0  0  0  0  0  0
  -17.7434    9.2207  -24.0411 O   0  0  0  0  0  0  0  0  0  0  0  0
  -18.0110    7.8374  -25.9085 C   0  0  1  0  0  0  0  0  0  0  0  0
  -17.3209    6.5448  -25.6582 C   0  0  0  0  0  0  0  0  0  0  0  0
  -19.4597    7.8591  -25.7699 C   0  0  0  0  0  0  0  0  0  0  0  0
  -20.2352    8.8574  -26.3773 C   0  0  0  0  0  0  0  0  0  0  0  0
  -21.5728    8.8555  -26.1564 C   0  0  0  0  0  0  0  0  0  0  0  0
  -22.2317    7.9526  -25.3773 C   0  0  0  0  0  0  0  0  0  0  0  0
  -23.6434    8.0052  -24.9709 C   0  0  0  0  0  0  0  0  0  0  0  0
  -24.6714    7.3314  -25.8117 C   0  0  0  0  0  0  0  0  0  0  0  0
  -25.9867    7.4135  -24.9983 C   0  0  0  0  0  0  0  0  0  0  0  0
  -24.9023    8.3309  -26.9976 C   0  0  0  0  0  0  0  0  0  0  0  0
  -21.4351    6.9481  -24.7796 C   0  0  0  0  0  0  0  0  0  0  0  0
  -20.0912    6.9216  -24.9847 C   0  0  0  0  0  0  0  0  0  0  0  0
  -13.6744   14.6525  -26.4849 C   0  0  0  0  0  0  0  0  0  0  0  0
  -14.6108   15.1439  -25.6439 O   0  0  0  0  0  0  0  0  0  0  0  0
  -14.5617   16.4584  -25.1517 C   0  0  0  0  0  0  0  0  0  0  0  0
  -15.4810   16.8145  -24.0520 C   0  0  0  0  0  0  0  0  0  0  0  0
  -15.2604   18.0378  -23.5560 O   0  0  0  0  0  0  0  0  0  0  0  0
  -15.8288   19.1448  -24.1078 C   0  0  0  0  0  0  0  0  0  0  0  0
  -12.7906   15.4151  -27.2722 C   0  0  0  0  0  0  0  0  0  0  0  0
  -11.8678   14.9190  -28.1199 C   0  0  0  0  0  0  0  0  0  0  0  0
   -8.8565   17.6843  -29.6758 C   0  0  0  0  0  0  0  0  0  0  0  0
  1  2  3  0
  2  3  1  0
  3  4  2  0
  4  5  1  0
  5  6  2  0
  6  7  1  0
  7  8  1  0
  8  9  1  0
  9 10  2  0
 10 11  1  0
 11 12  2  0
 12 13  1  0
 13 14  2  0
 14 15  1  0
 15 16  1  0
 16 17  1  0
 17 18  1  0
 18 19  1  0
 19 20  1  0
 20 21  2  0
 20 22  1  0
 22 23  1  1
 22 24  1  0
 24 25  2  0
 25 26  1  0
 26 27  2  0
 27 28  1  0
 28 29  1  0
 29 30  1  0
 29 31  1  0
 27 32  1  0
 32 33  2  0
 15 34  2  0
 34 35  1  0
 35 36  1  0
 36 37  1  0
 37 38  1  0
 38 39  1  0
 34 40  1  0
 40 41  2  0
  7 42  2  0
 42  3  1  0
 41  9  1  0
 41 13  1  0
 33 24  1  0
M  END
$$$$
CHEMBL3741026_diffdock_8
     RDKit          3D

 42 45  0  0  0  0  0  0  0  0999 V2000
   -8.6874   22.2938  -29.6325 C   0  0  0  0  0  0  0  0  0  0  0  0
   -9.1508   21.2074  -30.0452 C   0  0  0  0  0  0  0  0  0  0  0  0
   -9.6769   20.0078  -30.5117 C   0  0  0  0  0  0  0  0  0  0  0  0
   -9.5952   19.5737  -31.8293 C   0  0  0  0  0  0  0  0  0  0  0  0
  -10.1943   18.4062  -32.2058 C   0  0  0  0  0  0  0  0  0  0  0  0
  -10.9048   17.5815  -31.3251 C   0  0  0  0  0  0  0  0  0  0  0  0
  -10.9753   18.0205  -30.0025 C   0  0  0  0  0  0  0  0  0  0  0  0
  -11.7327   17.2073  -29.0809 N   0  0  0  0  0  0  0  0  0  0  0  0
  -11.5707   15.8049  -28.9516 C   0  0  0  0  0  0  0  0  0  0  0  0
  -10.6767   15.1682  -29.6927 N   0  0  0  0  0  0  0  0  0  0  0  0
  -10.4637   13.8663  -29.5715 C   0  0  0  0  0  0  0  0  0  0  0  0
  -11.1786   13.1883  -28.6641 N   0  0  0  0  0  0  0  0  0  0  0  0
  -12.0905   13.7776  -27.8940 C   0  0  0  0  0  0  0  0  0  0  0  0
  -12.8340   13.1037  -26.9614 C   0  0  0  0  0  0  0  0  0  0  0  0
  -13.7462   13.6727  -26.1886 C   0  0  0  0  0  0  0  0  0  0  0  0
  -14.4662   12.8930  -25.2517 O   0  0  0  0  0  0  0  0  0  0  0  0
  -15.2474   11.8369  -25.8266 C   0  0  0  0  0  0  0  0  0  0  0  0
  -16.2030   11.2037  -24.8856 C   0  0  0  0  0  0  0  0  0  0  0  0
  -17.5521   11.4396  -25.0759 O   0  0  0  0  0  0  0  0  0  0  0  0
  -18.5521   11.2316  -24.1210 C   0  0  0  0  0  0  0  0  0  0  0  0
  -18.8629   12.1177  -23.3506 O   0  0  0  0  0  0  0  0  0  0  0  0
  -19.2639    9.9172  -24.0357 C   0  0  1  0  0  0  0  0  0  0  0  0
  -20.2022    9.8024  -22.8885 C   0  0  0  0  0  0  0  0  0  0  0  0
  -19.7642    9.5373  -25.3487 C   0  0  0  0  0  0  0  0  0  0  0  0
  -19.3605    8.3441  -25.9653 C   0  0  0  0  0  0  0  0  0  0  0  0
  -19.8153    8.0809  -27.2151 C   0  0  0  0  0  0  0  0  0  0  0  0
  -20.6396    8.8958  -27.9311 C   0  0  0  0  0  0  0  0  0  0  0  0
  -21.0223    8.7409  -29.3419 C   0  0  0  0  0  0  0  0  0  0  0  0
  -19.9611    8.5660  -30.3719 C   0  0  0  0  0  0  0  0  0  0  0  0
  -20.1174    7.1118  -30.8811 C   0  0  0  0  0  0  0  0  0  0  0  0
  -20.4574    9.4390  -31.5761 C   0  0  0  0  0  0  0  0  0  0  0  0
  -21.0433   10.0906  -27.2904 C   0  0  0  0  0  0  0  0  0  0  0  0
  -20.6066   10.3812  -26.0360 C   0  0  0  0  0  0  0  0  0  0  0  0
  -14.0432   15.0382  -26.2546 C   0  0  0  0  0  0  0  0  0  0  0  0
  -14.9901   15.5889  -25.4636 O   0  0  0  0  0  0  0  0  0  0  0  0
  -14.6743   16.4740  -24.4199 C   0  0  0  0  0  0  0  0  0  0  0  0
  -15.7663   16.8857  -23.5147 C   0  0  0  0  0  0  0  0  0  0  0  0
  -15.5336   18.0546  -22.9059 O   0  0  0  0  0  0  0  0  0  0  0  0
  -15.6006   19.2358  -23.5793 C   0  0  0  0  0  0  0  0  0  0  0  0
  -13.2693   15.7205  -27.2127 C   0  0  0  0  0  0  0  0  0  0  0  0
  -12.3358   15.1628  -28.0087 C   0  0  0  0  0  0  0  0  0  0  0  0
  -10.4003   19.1702  -29.6136 C   0  0  0  0  0  0  0  0  0  0  0  0
  1  2  3  0
  2  3  1  0
  3  4  2  0
  4  5  1  0
  5  6  2  0
  6  7  1  0
  7  8  1  0
  8  9  1  0
  9 10  2  0
 10 11  1  0
 11 12  2  0
 12 13  1  0
 13 14  2  0
 14 15  1  0
 15 16  1  0
 16 17  1  0
 17 18  1  0
 18 19  1  0
 19 20  1  0
 20 21  2  0
 20 22  1  0
 22 23  1  1
 22 24  1  0
 24 25  2  0
 25 26  1  0
 26 27  2  0
 27 28  1  0
 28 29  1  0
 29 30  1  0
 29 31  1  0
 27 32  1  0
 32 33  2  0
 15 34  2  0
 34 35  1  0
 35 36  1  0
 36 37  1  0
 37 38  1  0
 38 39  1  0
 34 40  1  0
 40 41  2  0
  7 42  2  0
 42  3  1  0
 41  9  1  0
 41 13  1  0
 33 24  1  0
M  END
$$$$
CHEMBL3741026_diffdock_9
     RDKit          3D

 42 45  0  0  0  0  0  0  0  0999 V2000
   -8.4459   21.6953  -31.3760 C   0  0  0  0  0  0  0  0  0  0  0  0
   -8.2199   20.5995  -30.8158 C   0  0  0  0  0  0  0  0  0  0  0  0
   -7.9592   19.3779  -30.2051 C   0  0  0  0  0  0  0  0  0  0  0  0
   -6.7045   18.7838  -30.1402 C   0  0  0  0  0  0  0  0  0  0  0  0
   -6.5568   17.5525  -29.5697 C   0  0  0  0  0  0  0  0  0  0  0  0
   -7.6169   16.8223  -29.0187 C   0  0  0  0  0  0  0  0  0  0  0  0
   -8.8717   17.4292  -29.0807 C   0  0  0  0  0  0  0  0  0  0  0  0
   -9.9885   16.6823  -28.5522 N   0  0  0  0  0  0  0  0  0  0  0  0
  -10.2210   15.3117  -28.8294 C   0  0  0  0  0  0  0  0  0  0  0  0
   -9.4621   14.6732  -29.7070 N   0  0  0  0  0  0  0  0  0  0  0  0
   -9.6181   13.3827  -29.9623 C   0  0  0  0  0  0  0  0  0  0  0  0
  -10.5733   12.7162  -29.3009 N   0  0  0  0  0  0  0  0  0  0  0  0
  -11.3649   13.3082  -28.4094 C   0  0  0  0  0  0  0  0  0  0  0  0
  -12.3490   12.6468  -27.7233 C   0  0  0  0  0  0  0  0  0  0  0  0
  -13.1465   13.2196  -26.8351 C   0  0  0  0  0  0  0  0  0  0  0  0
  -14.1368   12.4529  -26.1748 O   0  0  0  0  0  0  0  0  0  0  0  0
  -15.4104   12.4259  -26.8331 C   0  0  0  0  0  0  0  0  0  0  0  0
  -16.3452   11.3999  -26.3104 C   0  0  0  0  0  0  0  0  0  0  0  0
  -17.5626   11.8265  -25.8124 O   0  0  0  0  0  0  0  0  0  0  0  0
  -18.2287   11.2681  -24.7171 C   0  0  0  0  0  0  0  0  0  0  0  0
  -18.2473   10.0644  -24.5550 O   0  0  0  0  0  0  0  0  0  0  0  0
  -18.9234   12.1424  -23.7199 C   0  0  1  0  0  0  0  0  0  0  0  0
  -19.9541   11.4447  -22.9071 C   0  0  0  0  0  0  0  0  0  0  0  0
  -17.9483   12.9552  -23.0077 C   0  0  0  0  0  0  0  0  0  0  0  0
  -17.2493   12.4520  -21.9010 C   0  0  0  0  0  0  0  0  0  0  0  0
  -16.4016   13.2821  -21.2447 C   0  0  0  0  0  0  0  0  0  0  0  0
  -16.1757   14.5843  -21.5757 C   0  0  0  0  0  0  0  0  0  0  0  0
  -15.4036   15.5678  -20.8028 C   0  0  0  0  0  0  0  0  0  0  0  0
  -15.0809   16.8869  -21.4139 C   0  0  0  0  0  0  0  0  0  0  0  0
  -14.9725   17.8751  -20.2264 C   0  0  0  0  0  0  0  0  0  0  0  0
  -13.5996   16.7241  -21.9012 C   0  0  0  0  0  0  0  0  0  0  0  0
  -16.8827   15.0723  -22.6994 C   0  0  0  0  0  0  0  0  0  0  0  0
  -17.7377   14.2633  -23.3802 C   0  0  0  0  0  0  0  0  0  0  0  0
  -13.0596   14.5775  -26.5102 C   0  0  0  0  0  0  0  0  0  0  0  0
  -13.8972   15.1383  -25.6105 O   0  0  0  0  0  0  0  0  0  0  0  0
  -14.5444   16.3617  -25.8488 C   0  0  0  0  0  0  0  0  0  0  0  0
  -15.4385   16.8822  -24.7946 C   0  0  0  0  0  0  0  0  0  0  0  0
  -16.6996   16.4502  -24.9127 O   0  0  0  0  0  0  0  0  0  0  0  0
  -17.2576   16.2006  -26.1290 C   0  0  0  0  0  0  0  0  0  0  0  0
  -12.0416   15.2450  -27.2179 C   0  0  0  0  0  0  0  0  0  0  0  0
  -11.2183   14.6827  -28.1246 C   0  0  0  0  0  0  0  0  0  0  0  0
   -9.0399   18.6360  -29.6454 C   0  0  0  0  0  0  0  0  0  0  0  0
  1  2  3  0
  2  3  1  0
  3  4  2  0
  4  5  1  0
  5  6  2  0
  6  7  1  0
  7  8  1  0
  8  9  1  0
  9 10  2  0
 10 11  1  0
 11 12  2  0
 12 13  1  0
 13 14  2  0
 14 15  1  0
 15 16  1  0
 16 17  1  0
 17 18  1  0
 18 19  1  0
 19 20  1  0
 20 21  2  0
 20 22  1  0
 22 23  1  1
 22 24  1  0
 24 25  2  0
 25 26  1  0
 26 27  2  0
 27 28  1  0
 28 29  1  0
 29 30  1  0
 29 31  1  0
 27 32  1  0
 32 33  2  0
 15 34  2  0
 34 35  1  0
 35 36  1  0
 36 37  1  0
 37 38  1  0
 38 39  1  0
 34 40  1  0
 40 41  2  0
  7 42  2  0
 42  3  1  0
 41  9  1  0
 41 13  1  0
 33 24  1  0
M  END
$$$$
CHEMBL3741026_diffdock_10
     RDKit          3D

 42 45  0  0  0  0  0  0  0  0999 V2000
 -111.2280  -98.7509   65.0965 C   0  0  0  0  0  0  0  0  0  0  0  0
 -110.8167  -99.5656   64.2405 C   0  0  0  0  0  0  0  0  0  0  0  0
 -110.3742 -100.4724   63.2838 C   0  0  0  0  0  0  0  0  0  0  0  0
 -111.2007 -101.3472   62.5888 C   0  0  0  0  0  0  0  0  0  0  0  0
 -110.6662 -102.2436   61.7089 C   0  0  0  0  0  0  0  0  0  0  0  0
 -109.2953 -102.3429   61.4418 C   0  0  0  0  0  0  0  0  0  0  0  0
 -108.4733 -101.4559   62.1376 C   0  0  0  0  0  0  0  0  0  0  0  0
 -107.0519 -101.5611   61.9080 N   0  0  0  0  0  0  0  0  0  0  0  0
 -106.0818 -101.5148   62.9407 C   0  0  0  0  0  0  0  0  0  0  0  0
 -106.4544 -101.6176   64.2074 N   0  0  0  0  0  0  0  0  0  0  0  0
 -105.5762 -101.6228   65.1992 C   0  0  0  0  0  0  0  0  0  0  0  0
 -104.2754 -101.5255   64.8951 N   0  0  0  0  0  0  0  0  0  0  0  0
 -103.8456 -101.4188   63.6398 C   0  0  0  0  0  0  0  0  0  0  0  0
 -102.5209 -101.3161   63.3062 C   0  0  0  0  0  0  0  0  0  0  0  0
 -102.0756 -101.2072   62.0640 C   0  0  0  0  0  0  0  0  0  0  0  0
 -100.6853 -101.1063   61.8168 O   0  0  0  0  0  0  0  0  0  0  0  0
  -99.8521 -101.6081   62.8704 C   0  0  0  0  0  0  0  0  0  0  0  0
  -98.3975 -101.4746   62.6135 C   0  0  0  0  0  0  0  0  0  0  0  0
  -97.7539 -100.3520   63.1011 O   0  0  0  0  0  0  0  0  0  0  0  0
  -96.6328 -100.3616   63.9367 C   0  0  0  0  0  0  0  0  0  0  0  0
  -96.1758 -101.4109   64.3432 O   0  0  0  0  0  0  0  0  0  0  0  0
  -95.9697  -99.0807   64.3384 C   0  0  1  0  0  0  0  0  0  0  0  0
  -94.8393  -99.2484   65.2891 C   0  0  0  0  0  0  0  0  0  0  0  0
  -95.7382  -98.2520   63.1645 C   0  0  0  0  0  0  0  0  0  0  0  0
  -96.4680  -97.0742   62.9482 C   0  0  0  0  0  0  0  0  0  0  0  0
  -96.2470  -96.3822   61.8035 C   0  0  0  0  0  0  0  0  0  0  0  0
  -95.3646  -96.7471   60.8316 C   0  0  0  0  0  0  0  0  0  0  0  0
  -95.2106  -96.1305   59.5061 C   0  0  0  0  0  0  0  0  0  0  0  0
  -96.0826  -94.9844   59.1274 C   0  0  0  0  0  0  0  0  0  0  0  0
  -95.1523  -93.7465   59.1127 C   0  0  0  0  0  0  0  0  0  0  0  0
  -96.3962  -95.2345   57.6116 C   0  0  0  0  0  0  0  0  0  0  0  0
  -94.6312  -97.9327   61.0703 C   0  0  0  0  0  0  0  0  0  0  0  0
  -94.8284  -98.6471   62.2104 C   0  0  0  0  0  0  0  0  0  0  0  0
 -102.9306 -101.1838   60.9570 C   0  0  0  0  0  0  0  0  0  0  0  0
 -102.4485 -101.0566   59.7012 O   0  0  0  0  0  0  0  0  0  0  0  0
 -101.4396 -101.8931   59.1964 C   0  0  0  0  0  0  0  0  0  0  0  0
 -101.4673 -102.2088   57.7538 C   0  0  0  0  0  0  0  0  0  0  0  0
 -100.4439 -102.9774   57.3629 O   0  0  0  0  0  0  0  0  0  0  0  0
 -100.4281 -103.5776   56.1412 C   0  0  0  0  0  0  0  0  0  0  0  0
 -104.2885 -101.2951   61.3123 C   0  0  0  0  0  0  0  0  0  0  0  0
 -104.7640 -101.4078   62.5683 C   0  0  0  0  0  0  0  0  0  0  0  0
 -108.9783 -100.5723   63.0140 C   0  0  0  0  0  0  0  0  0  0  0  0
  1  2  3  0
  2  3  1  0
  3  4  2  0
  4  5  1  0
  5  6  2  0
  6  7  1  0
  7  8  1  0
  8  9  1  0
  9 10  2  0
 10 11  1  0
 11 12  2  0
 12 13  1  0
 13 14  2  0
 14 15  1  0
 15 16  1  0
 16 17  1  0
 17 18  1  0
 18 19  1  0
 19 20  1  0
 20 21  2  0
 20 22  1  0
 22 23  1  6
 22 24  1  0
 24 25  2  0
 25 26  1  0
 26 27  2  0
 27 28  1  0
 28 29  1  0
 29 30  1  0
 29 31  1  0
 27 32  1  0
 32 33  2  0
 15 34  2  0
 34 35  1  0
 35 36  1  0
 36 37  1  0
 37 38  1  0
 38 39  1  0
 34 40  1  0
 40 41  2  0
  7 42  2  0
 42  3  1  0
 41  9  1  0
 41 13  1  0
 33 24  1  0
M  END
$$$$
CHEMBL5082074_diffdock_1
     RDKit          3D

 45 49  0  0  0  0  0  0  0  0999 V2000
  -11.4329   16.9741  -23.4501 C   0  0  0  0  0  0  0  0  0  0  0  0
  -12.4046   16.3307  -24.0378 C   0  0  0  0  0  0  0  0  0  0  0  0
  -13.6637   16.9903  -24.3045 C   0  0  0  0  0  0  0  0  0  0  0  0
  -13.7642   18.2192  -24.0646 O   0  0  0  0  0  0  0  0  0  0  0  0
  -14.8021   16.3364  -24.8233 N   0  0  0  0  0  0  0  0  0  0  0  0
  -14.8244   15.0023  -25.3225 C   0  0  0  0  0  0  0  0  0  0  0  0
  -13.7915   14.5984  -26.1666 C   0  0  0  0  0  0  0  0  0  0  0  0
  -13.7079   13.3193  -26.7004 C   0  0  0  0  0  0  0  0  0  0  0  0
  -12.6755   12.8848  -27.5554 N   0  0  0  0  0  0  0  0  0  0  0  0
  -11.9445   13.6317  -28.5023 C   0  0  0  0  0  0  0  0  0  0  0  0
  -11.2944   13.0516  -29.4981 N   0  0  0  0  0  0  0  0  0  0  0  0
  -10.5825   13.6828  -30.4337 C   0  0  0  0  0  0  0  0  0  0  0  0
  -10.5375   15.0716  -30.3280 C   0  0  0  0  0  0  0  0  0  0  0  0
  -11.1988   15.7207  -29.3083 C   0  0  0  0  0  0  0  0  0  0  0  0
  -11.1601   17.1294  -29.2030 N   0  0  0  0  0  0  0  0  0  0  0  0
  -11.9605   17.8597  -28.2897 C   0  0  0  0  0  0  0  0  0  0  0  0
  -11.7179   19.1011  -27.7469 C   0  0  0  0  0  0  0  0  0  0  0  0
  -12.7341   19.4321  -26.9052 N   0  0  0  0  0  0  0  0  0  0  0  0
  -12.8256   20.6742  -26.1467 C   0  0  0  0  0  0  0  0  0  0  0  0
  -13.6337   18.4348  -26.8868 C   0  0  0  0  0  0  0  0  0  0  0  0
  -14.8212   18.2485  -26.2224 C   0  0  0  0  0  0  0  0  0  0  0  0
  -15.5643   17.0765  -26.3992 C   0  0  0  0  0  0  0  0  0  0  0  0
  -15.1046   16.0935  -27.2488 C   0  0  0  0  0  0  0  0  0  0  0  0
  -13.9140   16.2790  -27.9158 C   0  0  0  0  0  0  0  0  0  0  0  0
  -13.1564   17.4431  -27.7530 C   0  0  0  0  0  0  0  0  0  0  0  0
  -11.8804   14.9870  -28.4280 N   0  0  0  0  0  0  0  0  0  0  0  0
  -14.7075   12.3870  -26.3780 C   0  0  0  0  0  0  0  0  0  0  0  0
  -14.6369   11.0994  -26.9067 O   0  0  0  0  0  0  0  0  0  0  0  0
  -15.7655   10.2481  -26.8596 C   0  0  0  0  0  0  0  0  0  0  0  0
  -15.7236   12.7794  -25.5494 C   0  0  0  0  0  0  0  0  0  0  0  0
  -15.7915   14.0755  -25.0194 C   0  0  0  0  0  0  0  0  0  0  0  0
  -16.8494   14.4499  -24.1631 N   0  0  0  0  0  0  0  0  0  0  0  0
  -17.6692   15.5851  -24.4664 C   0  0  0  0  0  0  0  0  0  0  0  0
  -17.1002   13.6775  -22.9730 C   0  0  0  0  0  0  0  0  0  0  0  0
  -18.4044   12.9141  -23.0748 C   0  0  0  0  0  0  0  0  0  0  0  0
  -18.4136   11.8609  -22.1107 N   0  0  2  0  0  4  0  0  0  0  0  0
  -17.2568   10.9940  -22.1504 C   0  0  0  0  0  0  0  0  0  0  0  0
  -19.6181   11.0667  -22.2886 C   0  0  0  0  0  0  0  0  0  0  0  0
  -20.5131   11.0817  -21.1184 C   0  0  0  0  0  0  0  0  0  0  0  0
  -21.8892   11.1017  -21.2625 C   0  0  0  0  0  0  0  0  0  0  0  0
  -22.7180   11.1137  -20.1487 C   0  0  0  0  0  0  0  0  0  0  0  0
  -22.2146   11.1065  -18.8688 C   0  0  0  0  0  0  0  0  0  0  0  0
  -23.3997   11.1237  -17.3676 Br  0  0  0  0  0  0  0  0  0  0  0  0
  -20.8508   11.0868  -18.7247 C   0  0  0  0  0  0  0  0  0  0  0  0
  -20.0159   11.0745  -19.8213 C   0  0  0  0  0  0  0  0  0  0  0  0
  1  2  2  0
  2  3  1  0
  3  4  2  0
  3  5  1  0
  5  6  1  0
  6  7  2  0
  7  8  1  0
  8  9  1  0
  9 10  1  0
 10 11  2  0
 11 12  1  0
 12 13  2  0
 13 14  1  0
 14 15  1  0
 15 16  1  0
 16 17  2  0
 17 18  1  0
 18 19  1  0
 18 20  1  0
 20 21  2  0
 21 22  1  0
 22 23  2  0
 23 24  1  0
 24 25  2  0
 14 26  2  0
  8 27  2  0
 27 28  1  0
 28 29  1  0
 27 30  1  0
 30 31  2  0
 31 32  1  0
 32 33  1  0
 32 34  1  0
 34 35  1  0
 35 36  1  0
 36 37  1  6
 36 38  1  0
 38 39  1  0
 39 40  2  0
 40 41  1  0
 41 42  2  0
 42 43  1  0
 42 44  1  0
 44 45  2  0
 31  6  1  0
 45 39  1  0
 26 10  1  0
 25 16  1  0
 25 20  1  0
M  CHG  1  36   1
M  END
$$$$
CHEMBL5082074_diffdock_2
     RDKit          3D

 45 49  0  0  0  0  0  0  0  0999 V2000
  -13.8333   18.4889  -23.1277 C   0  0  0  0  0  0  0  0  0  0  0  0
  -14.8542   17.7500  -23.4672 C   0  0  0  0  0  0  0  0  0  0  0  0
  -14.6731   16.6019  -24.3278 C   0  0  0  0  0  0  0  0  0  0  0  0
  -13.5054   16.2565  -24.6361 O   0  0  0  0  0  0  0  0  0  0  0  0
  -15.7353   15.8335  -24.8515 N   0  0  0  0  0  0  0  0  0  0  0  0
  -15.6141   14.5094  -25.3630 C   0  0  0  0  0  0  0  0  0  0  0  0
  -14.5238   14.2172  -26.1806 C   0  0  0  0  0  0  0  0  0  0  0  0
  -14.3018   12.9586  -26.7234 C   0  0  0  0  0  0  0  0  0  0  0  0
  -13.2087   12.6360  -27.5521 N   0  0  0  0  0  0  0  0  0  0  0  0
  -12.4355   13.4935  -28.3619 C   0  0  0  0  0  0  0  0  0  0  0  0
  -11.6428   13.0283  -29.3138 N   0  0  0  0  0  0  0  0  0  0  0  0
  -10.8815   13.7687  -30.1218 C   0  0  0  0  0  0  0  0  0  0  0  0
  -10.9471   15.1465  -29.9235 C   0  0  0  0  0  0  0  0  0  0  0  0
  -11.7583   15.6779  -28.9448 C   0  0  0  0  0  0  0  0  0  0  0  0
  -11.8316   17.0750  -28.7464 N   0  0  0  0  0  0  0  0  0  0  0  0
  -10.9666   17.9947  -29.3898 C   0  0  0  0  0  0  0  0  0  0  0  0
  -10.2928   19.0608  -28.8383 C   0  0  0  0  0  0  0  0  0  0  0  0
   -9.5793   19.6944  -29.8078 N   0  0  0  0  0  0  0  0  0  0  0  0
   -8.7401   20.8689  -29.6012 C   0  0  0  0  0  0  0  0  0  0  0  0
   -9.7725   19.0658  -30.9791 C   0  0  0  0  0  0  0  0  0  0  0  0
   -9.3058   19.2811  -32.2527 C   0  0  0  0  0  0  0  0  0  0  0  0
   -9.6889   18.4445  -33.3065 C   0  0  0  0  0  0  0  0  0  0  0  0
  -10.5444   17.3901  -33.0701 C   0  0  0  0  0  0  0  0  0  0  0  0
  -11.0130   17.1730  -31.7934 C   0  0  0  0  0  0  0  0  0  0  0  0
  -10.6422   17.9975  -30.7265 C   0  0  0  0  0  0  0  0  0  0  0  0
  -12.4764   14.8414  -28.1947 N   0  0  0  0  0  0  0  0  0  0  0  0
  -15.2148   11.9302  -26.4383 C   0  0  0  0  0  0  0  0  0  0  0  0
  -15.0049   10.6618  -26.9763 O   0  0  0  0  0  0  0  0  0  0  0  0
  -16.0452    9.7035  -26.9656 C   0  0  0  0  0  0  0  0  0  0  0  0
  -16.2867   12.2128  -25.6357 C   0  0  0  0  0  0  0  0  0  0  0  0
  -16.4948   13.4899  -25.0962 C   0  0  0  0  0  0  0  0  0  0  0  0
  -17.6074   13.7501  -24.2674 N   0  0  0  0  0  0  0  0  0  0  0  0
  -18.6392   14.6503  -24.6892 C   0  0  0  0  0  0  0  0  0  0  0  0
  -17.6984   13.1003  -22.9848 C   0  0  0  0  0  0  0  0  0  0  0  0
  -17.8833   11.6046  -23.1353 C   0  0  0  0  0  0  0  0  0  0  0  0
  -18.0438   11.0145  -21.8450 N   0  0  2  0  0  4  0  0  0  0  0  0
  -16.9394   11.2341  -20.9376 C   0  0  0  0  0  0  0  0  0  0  0  0
  -18.2630    9.5861  -22.0017 C   0  0  0  0  0  0  0  0  0  0  0  0
  -19.2705    9.0386  -21.0766 C   0  0  0  0  0  0  0  0  0  0  0  0
  -20.5631    9.5315  -21.0432 C   0  0  0  0  0  0  0  0  0  0  0  0
  -21.5005    9.0026  -20.1663 C   0  0  0  0  0  0  0  0  0  0  0  0
  -21.1902    7.9783  -19.3026 C   0  0  0  0  0  0  0  0  0  0  0  0
  -22.5186    7.2849  -18.1139 Br  0  0  0  0  0  0  0  0  0  0  0  0
  -19.9094    7.4889  -19.3347 C   0  0  0  0  0  0  0  0  0  0  0  0
  -18.9684    8.0041  -20.2000 C   0  0  0  0  0  0  0  0  0  0  0  0
  1  2  2  0
  2  3  1  0
  3  4  2  0
  3  5  1  0
  5  6  1  0
  6  7  2  0
  7  8  1  0
  8  9  1  0
  9 10  1  0
 10 11  2  0
 11 12  1  0
 12 13  2  0
 13 14  1  0
 14 15  1  0
 15 16  1  0
 16 17  2  0
 17 18  1  0
 18 19  1  0
 18 20  1  0
 20 21  2  0
 21 22  1  0
 22 23  2  0
 23 24  1  0
 24 25  2  0
 14 26  2  0
  8 27  2  0
 27 28  1  0
 28 29  1  0
 27 30  1  0
 30 31  2  0
 31 32  1  0
 32 33  1  0
 32 34  1  0
 34 35  1  0
 35 36  1  0
 36 37  1  1
 36 38  1  0
 38 39  1  0
 39 40  2  0
 40 41  1  0
 41 42  2  0
 42 43  1  0
 42 44  1  0
 44 45  2  0
 31  6  1  0
 45 39  1  0
 26 10  1  0
 25 16  1  0
 25 20  1  0
M  CHG  1  36   1
M  END
$$$$
CHEMBL5082074_diffdock_3
     RDKit          3D

 45 49  0  0  0  0  0  0  0  0999 V2000
  -12.9416   18.0375  -23.0884 C   0  0  0  0  0  0  0  0  0  0  0  0
  -14.0327   17.3564  -23.3100 C   0  0  0  0  0  0  0  0  0  0  0  0
  -14.0280   16.2478  -24.2388 C   0  0  0  0  0  0  0  0  0  0  0  0
  -12.9364   15.8911  -24.7477 O   0  0  0  0  0  0  0  0  0  0  0  0
  -15.1838   15.5306  -24.6165 N   0  0  0  0  0  0  0  0  0  0  0  0
  -15.1901   14.3405  -25.3995 C   0  0  0  0  0  0  0  0  0  0  0  0
  -14.2812   14.2402  -26.4514 C   0  0  0  0  0  0  0  0  0  0  0  0
  -14.1930   13.1224  -27.2702 C   0  0  0  0  0  0  0  0  0  0  0  0
  -13.2842   12.9947  -28.3396 N   0  0  0  0  0  0  0  0  0  0  0  0
  -12.3395   13.9313  -28.8078 C   0  0  0  0  0  0  0  0  0  0  0  0
  -11.2024   13.5548  -29.3702 N   0  0  0  0  0  0  0  0  0  0  0  0
  -10.2588   14.3737  -29.8388 C   0  0  0  0  0  0  0  0  0  0  0  0
  -10.5202   15.7366  -29.7118 C   0  0  0  0  0  0  0  0  0  0  0  0
  -11.6906   16.1769  -29.1333 C   0  0  0  0  0  0  0  0  0  0  0  0
  -11.9608   17.5584  -29.0096 N   0  0  0  0  0  0  0  0  0  0  0  0
  -12.7472   18.1028  -27.9640 C   0  0  0  0  0  0  0  0  0  0  0  0
  -14.0463   17.7977  -27.6266 C   0  0  0  0  0  0  0  0  0  0  0  0
  -14.4280   18.5589  -26.5658 N   0  0  0  0  0  0  0  0  0  0  0  0
  -15.7386   18.5141  -25.9279 C   0  0  0  0  0  0  0  0  0  0  0  0
  -13.4072   19.3536  -26.2038 C   0  0  0  0  0  0  0  0  0  0  0  0
  -13.2520   20.2997  -25.2204 C   0  0  0  0  0  0  0  0  0  0  0  0
  -12.0448   20.9921  -25.0772 C   0  0  0  0  0  0  0  0  0  0  0  0
  -10.9952   20.7260  -25.9298 C   0  0  0  0  0  0  0  0  0  0  0  0
  -11.1495   19.7773  -26.9163 C   0  0  0  0  0  0  0  0  0  0  0  0
  -12.3477   19.0744  -27.0761 C   0  0  0  0  0  0  0  0  0  0  0  0
  -12.5635   15.2672  -28.6993 N   0  0  0  0  0  0  0  0  0  0  0  0
  -15.0569   12.0412  -27.0314 C   0  0  0  0  0  0  0  0  0  0  0  0
  -14.9799   10.9124  -27.8454 O   0  0  0  0  0  0  0  0  0  0  0  0
  -16.0779   10.0254  -27.9372 C   0  0  0  0  0  0  0  0  0  0  0  0
  -15.9508   12.1354  -25.9994 C   0  0  0  0  0  0  0  0  0  0  0  0
  -16.0256   13.2723  -25.1826 C   0  0  0  0  0  0  0  0  0  0  0  0
  -16.9549   13.3386  -24.1221 N   0  0  0  0  0  0  0  0  0  0  0  0
  -16.7408   14.2239  -23.0162 C   0  0  0  0  0  0  0  0  0  0  0  0
  -18.1281   12.5032  -24.1596 C   0  0  0  0  0  0  0  0  0  0  0  0
  -19.3249   13.2558  -24.7032 C   0  0  0  0  0  0  0  0  0  0  0  0
  -20.2749   13.4554  -23.6561 N   0  0  2  0  0  4  0  0  0  0  0  0
  -20.8030   12.2395  -23.0783 C   0  0  0  0  0  0  0  0  0  0  0  0
  -21.3713   14.2662  -24.1599 C   0  0  0  0  0  0  0  0  0  0  0  0
  -22.1806   13.5905  -25.1890 C   0  0  0  0  0  0  0  0  0  0  0  0
  -22.4349   12.2315  -25.1302 C   0  0  0  0  0  0  0  0  0  0  0  0
  -23.2012   11.6113  -26.1076 C   0  0  0  0  0  0  0  0  0  0  0  0
  -23.7348   12.3109  -27.1647 C   0  0  0  0  0  0  0  0  0  0  0  0
  -24.7839   11.4087  -28.4853 Br  0  0  0  0  0  0  0  0  0  0  0  0
  -23.4834   13.6578  -27.2243 C   0  0  0  0  0  0  0  0  0  0  0  0
  -22.7245   14.2869  -26.2609 C   0  0  0  0  0  0  0  0  0  0  0  0
  1  2  2  0
  2  3  1  0
  3  4  2  0
  3  5  1  0
  5  6  1  0
  6  7  2  0
  7  8  1  0
  8  9  1  0
  9 10  1  0
 10 11  2  0
 11 12  1  0
 12 13  2  0
 13 14  1  0
 14 15  1  0
 15 16  1  0
 16 17  2  0
 17 18  1  0
 18 19  1  0
 18 20  1  0
 20 21  2  0
 21 22  1  0
 22 23  2  0
 23 24  1  0
 24 25  2  0
 14 26  2  0
  8 27  2  0
 27 28  1  0
 28 29  1  0
 27 30  1  0
 30 31  2  0
 31 32  1  0
 32 33  1  0
 32 34  1  0
 34 35  1  0
 35 36  1  0
 36 37  1  6
 36 38  1  0
 38 39  1  0
 39 40  2  0
 40 41  1  0
 41 42  2  0
 42 43  1  0
 42 44  1  0
 44 45  2  0
 31  6  1  0
 45 39  1  0
 26 10  1  0
 25 16  1  0
 25 20  1  0
M  CHG  1  36   1
M  END
$$$$
CHEMBL5082074_diffdock_4
     RDKit          3D

 45 49  0  0  0  0  0  0  0  0999 V2000
  -14.6432   19.9214  -27.2050 C   0  0  0  0  0  0  0  0  0  0  0  0
  -13.8494   19.8343  -28.2373 C   0  0  0  0  0  0  0  0  0  0  0  0
  -12.9319   18.7236  -28.3639 C   0  0  0  0  0  0  0  0  0  0  0  0
  -13.1382   17.6892  -27.6816 O   0  0  0  0  0  0  0  0  0  0  0  0
  -11.8051   18.7244  -29.2143 N   0  0  0  0  0  0  0  0  0  0  0  0
  -10.9565   17.6050  -29.4511 C   0  0  0  0  0  0  0  0  0  0  0  0
  -11.5414   16.3429  -29.5390 C   0  0  0  0  0  0  0  0  0  0  0  0
  -10.8113   15.1864  -29.7782 C   0  0  0  0  0  0  0  0  0  0  0  0
  -11.3767   13.8991  -29.8721 N   0  0  0  0  0  0  0  0  0  0  0  0
  -12.3879   13.3222  -29.0761 C   0  0  0  0  0  0  0  0  0  0  0  0
  -12.5602   12.0121  -29.0070 N   0  0  0  0  0  0  0  0  0  0  0  0
  -13.4888   11.3877  -28.2801 C   0  0  0  0  0  0  0  0  0  0  0  0
  -14.3356   12.2110  -27.5405 C   0  0  0  0  0  0  0  0  0  0  0  0
  -14.1949   13.5810  -27.5802 C   0  0  0  0  0  0  0  0  0  0  0  0
  -15.0481   14.4175  -26.8258 N   0  0  0  0  0  0  0  0  0  0  0  0
  -14.5718   15.4643  -25.9978 C   0  0  0  0  0  0  0  0  0  0  0  0
  -13.4507   16.2443  -26.1694 C   0  0  0  0  0  0  0  0  0  0  0  0
  -13.3517   17.1256  -25.1379 N   0  0  0  0  0  0  0  0  0  0  0  0
  -12.2919   18.1142  -24.9766 C   0  0  0  0  0  0  0  0  0  0  0  0
  -14.3828   16.9381  -24.2976 C   0  0  0  0  0  0  0  0  0  0  0  0
  -14.7616   17.5382  -23.1217 C   0  0  0  0  0  0  0  0  0  0  0  0
  -15.9126   17.1219  -22.4440 C   0  0  0  0  0  0  0  0  0  0  0  0
  -16.6794   16.0983  -22.9573 C   0  0  0  0  0  0  0  0  0  0  0  0
  -16.3007   15.4958  -24.1365 C   0  0  0  0  0  0  0  0  0  0  0  0
  -15.1541   15.8970  -24.8292 C   0  0  0  0  0  0  0  0  0  0  0  0
  -13.2302   14.0965  -28.3428 N   0  0  0  0  0  0  0  0  0  0  0  0
   -9.4199   15.2881  -29.9396 C   0  0  0  0  0  0  0  0  0  0  0  0
   -8.6740   14.1355  -30.1801 O   0  0  0  0  0  0  0  0  0  0  0  0
   -7.2681   14.2133  -30.3149 C   0  0  0  0  0  0  0  0  0  0  0  0
   -8.8414   16.5254  -29.8541 C   0  0  0  0  0  0  0  0  0  0  0  0
   -9.5947   17.6827  -29.6120 C   0  0  0  0  0  0  0  0  0  0  0  0
   -8.9705   18.9464  -29.5340 N   0  0  0  0  0  0  0  0  0  0  0  0
   -8.2952   19.3561  -28.3387 C   0  0  0  0  0  0  0  0  0  0  0  0
   -9.0184   19.8278  -30.6727 C   0  0  0  0  0  0  0  0  0  0  0  0
   -9.4740   21.2170  -30.2769 C   0  0  0  0  0  0  0  0  0  0  0  0
   -8.4233   22.1503  -30.5291 N   0  0  2  0  0  4  0  0  0  0  0  0
   -8.4823   23.3572  -29.7347 C   0  0  0  0  0  0  0  0  0  0  0  0
   -8.4295   22.5003  -31.9400 C   0  0  0  0  0  0  0  0  0  0  0  0
   -7.5607   21.6427  -32.7648 C   0  0  0  0  0  0  0  0  0  0  0  0
   -6.2409   21.9774  -33.0118 C   0  0  0  0  0  0  0  0  0  0  0  0
   -5.4358   21.1566  -33.7899 C   0  0  0  0  0  0  0  0  0  0  0  0
   -5.9079   19.9892  -34.3430 C   0  0  0  0  0  0  0  0  0  0  0  0
   -4.7573   18.8934  -35.4077 Br  0  0  0  0  0  0  0  0  0  0  0  0
   -7.2159   19.6565  -34.0989 C   0  0  0  0  0  0  0  0  0  0  0  0
   -8.0268   20.4616  -33.3283 C   0  0  0  0  0  0  0  0  0  0  0  0
  1  2  2  0
  2  3  1  0
  3  4  2  0
  3  5  1  0
  5  6  1  0
  6  7  2  0
  7  8  1  0
  8  9  1  0
  9 10  1  0
 10 11  2  0
 11 12  1  0
 12 13  2  0
 13 14  1  0
 14 15  1  0
 15 16  1  0
 16 17  2  0
 17 18  1  0
 18 19  1  0
 18 20  1  0
 20 21  2  0
 21 22  1  0
 22 23  2  0
 23 24  1  0
 24 25  2  0
 14 26  2  0
  8 27  2  0
 27 28  1  0
 28 29  1  0
 27 30  1  0
 30 31  2  0
 31 32  1  0
 32 33  1  0
 32 34  1  0
 34 35  1  0
 35 36  1  0
 36 37  1  1
 36 38  1  0
 38 39  1  0
 39 40  2  0
 40 41  1  0
 41 42  2  0
 42 43  1  0
 42 44  1  0
 44 45  2  0
 31  6  1  0
 45 39  1  0
 26 10  1  0
 25 16  1  0
 25 20  1  0
M  CHG  1  36   1
M  END
$$$$
CHEMBL5082074_diffdock_5
     RDKit          3D

 45 49  0  0  0  0  0  0  0  0999 V2000
  -14.1842   19.8683  -25.7916 C   0  0  0  0  0  0  0  0  0  0  0  0
  -12.9673   19.8568  -26.2632 C   0  0  0  0  0  0  0  0  0  0  0  0
  -12.3765   18.6241  -26.7354 C   0  0  0  0  0  0  0  0  0  0  0  0
  -12.3678   17.6272  -25.9712 O   0  0  0  0  0  0  0  0  0  0  0  0
  -11.8014   18.4646  -28.0148 N   0  0  0  0  0  0  0  0  0  0  0  0
  -10.8035   17.5050  -28.3505 C   0  0  0  0  0  0  0  0  0  0  0  0
  -11.2074   16.1933  -28.5935 C   0  0  0  0  0  0  0  0  0  0  0  0
  -10.3217   15.1814  -28.9391 C   0  0  0  0  0  0  0  0  0  0  0  0
  -10.7027   13.8481  -29.1902 N   0  0  0  0  0  0  0  0  0  0  0  0
  -11.8779   13.1788  -28.7905 C   0  0  0  0  0  0  0  0  0  0  0  0
  -12.1610   11.9554  -29.2074 N   0  0  0  0  0  0  0  0  0  0  0  0
  -13.2469   11.2537  -28.8772 C   0  0  0  0  0  0  0  0  0  0  0  0
  -14.1419   11.8887  -28.0182 C   0  0  0  0  0  0  0  0  0  0  0  0
  -13.8901   13.1625  -27.5574 C   0  0  0  0  0  0  0  0  0  0  0  0
  -14.7929   13.8058  -26.6810 N   0  0  0  0  0  0  0  0  0  0  0  0
  -14.6627   15.1630  -26.2948 C   0  0  0  0  0  0  0  0  0  0  0  0
  -13.8388   16.1267  -26.8306 C   0  0  0  0  0  0  0  0  0  0  0  0
  -14.0156   17.2963  -26.1587 N   0  0  0  0  0  0  0  0  0  0  0  0
  -13.3139   18.5426  -26.4430 C   0  0  0  0  0  0  0  0  0  0  0  0
  -14.9360   17.1171  -25.1969 C   0  0  0  0  0  0  0  0  0  0  0  0
  -15.4797   17.9460  -24.2463 C   0  0  0  0  0  0  0  0  0  0  0  0
  -16.4436   17.4719  -23.3500 C   0  0  0  0  0  0  0  0  0  0  0  0
  -16.8566   16.1588  -23.4167 C   0  0  0  0  0  0  0  0  0  0  0  0
  -16.3123   15.3266  -24.3696 C   0  0  0  0  0  0  0  0  0  0  0  0
  -15.3479   15.7808  -25.2746 C   0  0  0  0  0  0  0  0  0  0  0  0
  -12.7712   13.7696  -27.9540 N   0  0  0  0  0  0  0  0  0  0  0  0
   -8.9558   15.4888  -29.0500 C   0  0  0  0  0  0  0  0  0  0  0  0
   -8.0551   14.4831  -29.3960 O   0  0  0  0  0  0  0  0  0  0  0  0
   -6.8147   14.8128  -29.9906 C   0  0  0  0  0  0  0  0  0  0  0  0
   -8.5550   16.7756  -28.8124 C   0  0  0  0  0  0  0  0  0  0  0  0
   -9.4638   17.7848  -28.4646 C   0  0  0  0  0  0  0  0  0  0  0  0
   -9.0211   19.1045  -28.2302 N   0  0  0  0  0  0  0  0  0  0  0  0
   -8.1069   19.3911  -27.1649 C   0  0  0  0  0  0  0  0  0  0  0  0
   -9.4991   20.1690  -29.0752 C   0  0  0  0  0  0  0  0  0  0  0  0
   -9.8412   21.4039  -28.2677 C   0  0  0  0  0  0  0  0  0  0  0  0
   -9.2065   22.5423  -28.8507 N   0  0  2  0  0  4  0  0  0  0  0  0
   -9.5228   23.8026  -28.2161 C   0  0  0  0  0  0  0  0  0  0  0  0
   -9.5574   22.6101  -30.2598 C   0  0  0  0  0  0  0  0  0  0  0  0
   -8.5494   22.0066  -31.1488 C   0  0  0  0  0  0  0  0  0  0  0  0
   -7.4306   21.3683  -30.6431 C   0  0  0  0  0  0  0  0  0  0  0  0
   -6.4915   20.8033  -31.4954 C   0  0  0  0  0  0  0  0  0  0  0  0
   -6.6294   20.8525  -32.8629 C   0  0  0  0  0  0  0  0  0  0  0  0
   -5.3067   20.0584  -33.9935 Br  0  0  0  0  0  0  0  0  0  0  0  0
   -7.7378   21.4850  -33.3654 C   0  0  0  0  0  0  0  0  0  0  0  0
   -8.6784   22.0501  -32.5313 C   0  0  0  0  0  0  0  0  0  0  0  0
  1  2  2  0
  2  3  1  0
  3  4  2  0
  3  5  1  0
  5  6  1  0
  6  7  2  0
  7  8  1  0
  8  9  1  0
  9 10  1  0
 10 11  2  0
 11 12  1  0
 12 13  2  0
 13 14  1  0
 14 15  1  0
 15 16  1  0
 16 17  2  0
 17 18  1  0
 18 19  1  0
 18 20  1  0
 20 21  2  0
 21 22  1  0
 22 23  2  0
 23 24  1  0
 24 25  2  0
 14 26  2  0
  8 27  2  0
 27 28  1  0
 28 29  1  0
 27 30  1  0
 30 31  2  0
 31 32  1  0
 32 33  1  0
 32 34  1  0
 34 35  1  0
 35 36  1  0
 36 37  1  1
 36 38  1  0
 38 39  1  0
 39 40  2  0
 40 41  1  0
 41 42  2  0
 42 43  1  0
 42 44  1  0
 44 45  2  0
 31  6  1  0
 45 39  1  0
 26 10  1  0
 25 16  1  0
 25 20  1  0
M  CHG  1  36   1
M  END
$$$$
CHEMBL5082074_diffdock_6
     RDKit          3D

 45 49  0  0  0  0  0  0  0  0999 V2000
  -15.1615   19.8266  -25.7770 C   0  0  0  0  0  0  0  0  0  0  0  0
  -14.7479   18.7287  -25.2051 C   0  0  0  0  0  0  0  0  0  0  0  0
  -14.9178   17.4518  -25.8625 C   0  0  0  0  0  0  0  0  0  0  0  0
  -15.3640   17.4318  -27.0366 O   0  0  0  0  0  0  0  0  0  0  0  0
  -14.6116   16.2101  -25.2648 N   0  0  0  0  0  0  0  0  0  0  0  0
  -14.7287   14.9422  -25.9036 C   0  0  0  0  0  0  0  0  0  0  0  0
  -13.7169   14.5504  -26.7785 C   0  0  0  0  0  0  0  0  0  0  0  0
  -13.7237   13.3325  -27.4452 C   0  0  0  0  0  0  0  0  0  0  0  0
  -12.7146   12.9115  -28.3341 N   0  0  0  0  0  0  0  0  0  0  0  0
  -11.7845   13.6978  -29.0452 C   0  0  0  0  0  0  0  0  0  0  0  0
  -10.8489   13.1546  -29.8071 N   0  0  0  0  0  0  0  0  0  0  0  0
   -9.9343   13.8243  -30.5111 C   0  0  0  0  0  0  0  0  0  0  0  0
   -9.9936   15.2134  -30.4170 C   0  0  0  0  0  0  0  0  0  0  0  0
  -10.9503   15.8248  -29.6364 C   0  0  0  0  0  0  0  0  0  0  0  0
  -11.0166   17.2334  -29.5449 N   0  0  0  0  0  0  0  0  0  0  0  0
  -11.8586   17.9109  -28.6282 C   0  0  0  0  0  0  0  0  0  0  0  0
  -12.8067   17.3762  -27.7858 C   0  0  0  0  0  0  0  0  0  0  0  0
  -13.4000   18.3769  -27.0807 N   0  0  0  0  0  0  0  0  0  0  0  0
  -14.4538   18.1954  -26.0892 C   0  0  0  0  0  0  0  0  0  0  0  0
  -12.8603   19.5520  -27.4444 C   0  0  0  0  0  0  0  0  0  0  0  0
  -13.0840   20.8513  -27.0596 C   0  0  0  0  0  0  0  0  0  0  0  0
  -12.3547   21.9017  -27.6271 C   0  0  0  0  0  0  0  0  0  0  0  0
  -11.3991   21.6358  -28.5839 C   0  0  0  0  0  0  0  0  0  0  0  0
  -11.1736   20.3333  -28.9706 C   0  0  0  0  0  0  0  0  0  0  0  0
  -11.8917   19.2694  -28.4156 C   0  0  0  0  0  0  0  0  0  0  0  0
  -11.8149   15.0545  -28.9753 N   0  0  0  0  0  0  0  0  0  0  0  0
  -14.7970   12.4523  -27.2315 C   0  0  0  0  0  0  0  0  0  0  0  0
  -14.8174   11.2263  -27.8941 O   0  0  0  0  0  0  0  0  0  0  0  0
  -15.7766   10.2463  -27.5476 C   0  0  0  0  0  0  0  0  0  0  0  0
  -15.7926   12.8330  -26.3731 C   0  0  0  0  0  0  0  0  0  0  0  0
  -15.7689   14.0670  -25.7083 C   0  0  0  0  0  0  0  0  0  0  0  0
  -16.8080   14.4302  -24.8247 N   0  0  0  0  0  0  0  0  0  0  0  0
  -17.6001   13.4281  -24.1756 C   0  0  0  0  0  0  0  0  0  0  0  0
  -17.0691   15.8256  -24.5790 C   0  0  0  0  0  0  0  0  0  0  0  0
  -16.3640   16.3075  -23.3281 C   0  0  0  0  0  0  0  0  0  0  0  0
  -17.3339   16.6213  -22.3284 N   0  0  2  0  0  4  0  0  0  0  0  0
  -18.1674   17.7636  -22.6312 C   0  0  0  0  0  0  0  0  0  0  0  0
  -16.6544   16.8419  -21.0623 C   0  0  0  0  0  0  0  0  0  0  0  0
  -16.5406   18.2637  -20.6934 C   0  0  0  0  0  0  0  0  0  0  0  0
  -15.4234   18.7525  -20.0394 C   0  0  0  0  0  0  0  0  0  0  0  0
  -15.3319   20.0958  -19.7008 C   0  0  0  0  0  0  0  0  0  0  0  0
  -16.3349   20.9892  -19.9963 C   0  0  0  0  0  0  0  0  0  0  0  0
  -16.1597   22.8302  -19.5078 Br  0  0  0  0  0  0  0  0  0  0  0  0
  -17.4428   20.5060  -20.6444 C   0  0  0  0  0  0  0  0  0  0  0  0
  -17.5473   19.1750  -20.9869 C   0  0  0  0  0  0  0  0  0  0  0  0
  1  2  2  0
  2  3  1  0
  3  4  2  0
  3  5  1  0
  5  6  1  0
  6  7  2  0
  7  8  1  0
  8  9  1  0
  9 10  1  0
 10 11  2  0
 11 12  1  0
 12 13  2  0
 13 14  1  0
 14 15  1  0
 15 16  1  0
 16 17  2  0
 17 18  1  0
 18 19  1  0
 18 20  1  0
 20 21  2  0
 21 22  1  0
 22 23  2  0
 23 24  1  0
 24 25  2  0
 14 26  2  0
  8 27  2  0
 27 28  1  0
 28 29  1  0
 27 30  1  0
 30 31  2  0
 31 32  1  0
 32 33  1  0
 32 34  1  0
 34 35  1  0
 35 36  1  0
 36 37  1  6
 36 38  1  0
 38 39  1  0
 39 40  2  0
 40 41  1  0
 41 42  2  0
 42 43  1  0
 42 44  1  0
 44 45  2  0
 31  6  1  0
 45 39  1  0
 26 10  1  0
 25 16  1  0
 25 20  1  0
M  CHG  1  36   1
M  END
$$$$
CHEMBL5082074_diffdock_7
     RDKit          3D

 45 49  0  0  0  0  0  0  0  0999 V2000
  -14.9180   19.8685  -26.6464 C   0  0  0  0  0  0  0  0  0  0  0  0
  -14.8643   18.8746  -25.8021 C   0  0  0  0  0  0  0  0  0  0  0  0
  -14.8656   17.5089  -26.2777 C   0  0  0  0  0  0  0  0  0  0  0  0
  -14.0213   17.1703  -27.1439 O   0  0  0  0  0  0  0  0  0  0  0  0
  -15.7645   16.5178  -25.8273 N   0  0  0  0  0  0  0  0  0  0  0  0
  -15.6193   15.1182  -26.0492 C   0  0  0  0  0  0  0  0  0  0  0  0
  -14.4584   14.6684  -26.6758 C   0  0  0  0  0  0  0  0  0  0  0  0
  -14.2084   13.3266  -26.9309 C   0  0  0  0  0  0  0  0  0  0  0  0
  -13.0442   12.8448  -27.5619 N   0  0  0  0  0  0  0  0  0  0  0  0
  -11.9917   13.5797  -28.1459 C   0  0  0  0  0  0  0  0  0  0  0  0
  -10.7718   13.0806  -28.2620 N   0  0  0  0  0  0  0  0  0  0  0  0
   -9.7239   13.7070  -28.8007 C   0  0  0  0  0  0  0  0  0  0  0  0
   -9.9643   14.9958  -29.2732 C   0  0  0  0  0  0  0  0  0  0  0  0
  -11.2183   15.5580  -29.1746 C   0  0  0  0  0  0  0  0  0  0  0  0
  -11.4660   16.8621  -29.6591 N   0  0  0  0  0  0  0  0  0  0  0  0
  -12.0598   17.8804  -28.8726 C   0  0  0  0  0  0  0  0  0  0  0  0
  -11.4969   19.0583  -28.4362 C   0  0  0  0  0  0  0  0  0  0  0  0
  -12.4074   19.7470  -27.6965 N   0  0  0  0  0  0  0  0  0  0  0  0
  -12.1722   21.0413  -27.0673 C   0  0  0  0  0  0  0  0  0  0  0  0
  -13.5513   19.0450  -27.6405 C   0  0  0  0  0  0  0  0  0  0  0  0
  -14.7655   19.2677  -27.0385 C   0  0  0  0  0  0  0  0  0  0  0  0
  -15.8016   18.3342  -27.1497 C   0  0  0  0  0  0  0  0  0  0  0  0
  -15.6078   17.1757  -27.8706 C   0  0  0  0  0  0  0  0  0  0  0  0
  -14.3907   16.9513  -28.4749 C   0  0  0  0  0  0  0  0  0  0  0  0
  -13.3425   17.8715  -28.3759 C   0  0  0  0  0  0  0  0  0  0  0  0
  -12.1925   14.8386  -28.6165 N   0  0  0  0  0  0  0  0  0  0  0  0
  -15.1660   12.3759  -26.5416 C   0  0  0  0  0  0  0  0  0  0  0  0
  -14.9287   11.0254  -26.7913 O   0  0  0  0  0  0  0  0  0  0  0  0
  -15.9991   10.1666  -27.1343 C   0  0  0  0  0  0  0  0  0  0  0  0
  -16.3074   12.8133  -25.9260 C   0  0  0  0  0  0  0  0  0  0  0  0
  -16.5428   14.1725  -25.6763 C   0  0  0  0  0  0  0  0  0  0  0  0
  -17.7277   14.5933  -25.0348 N   0  0  0  0  0  0  0  0  0  0  0  0
  -18.9210   13.8041  -25.1116 C   0  0  0  0  0  0  0  0  0  0  0  0
  -17.7289   15.8311  -24.2976 C   0  0  0  0  0  0  0  0  0  0  0  0
  -16.7645   15.7800  -23.1308 C   0  0  0  0  0  0  0  0  0  0  0  0
  -16.2528   17.0894  -22.8811 N   0  0  2  0  0  4  0  0  0  0  0  0
  -15.2042   17.5115  -23.7831 C   0  0  0  0  0  0  0  0  0  0  0  0
  -15.7672   17.1548  -21.5124 C   0  0  0  0  0  0  0  0  0  0  0  0
  -14.3173   16.9245  -21.3888 C   0  0  0  0  0  0  0  0  0  0  0  0
  -13.7125   16.7782  -20.1529 C   0  0  0  0  0  0  0  0  0  0  0  0
  -12.3449   16.5599  -20.0549 C   0  0  0  0  0  0  0  0  0  0  0  0
  -11.5406   16.4806  -21.1676 C   0  0  0  0  0  0  0  0  0  0  0  0
   -9.6614   16.1784  -20.9781 Br  0  0  0  0  0  0  0  0  0  0  0  0
  -12.1388   16.6255  -22.3932 C   0  0  0  0  0  0  0  0  0  0  0  0
  -13.4953   16.8425  -22.5057 C   0  0  0  0  0  0  0  0  0  0  0  0
  1  2  2  0
  2  3  1  0
  3  4  2  0
  3  5  1  0
  5  6  1  0
  6  7  2  0
  7  8  1  0
  8  9  1  0
  9 10  1  0
 10 11  2  0
 11 12  1  0
 12 13  2  0
 13 14  1  0
 14 15  1  0
 15 16  1  0
 16 17  2  0
 17 18  1  0
 18 19  1  0
 18 20  1  0
 20 21  2  0
 21 22  1  0
 22 23  2  0
 23 24  1  0
 24 25  2  0
 14 26  2  0
  8 27  2  0
 27 28  1  0
 28 29  1  0
 27 30  1  0
 30 31  2  0
 31 32  1  0
 32 33  1  0
 32 34  1  0
 34 35  1  0
 35 36  1  0
 36 37  1  6
 36 38  1  0
 38 39  1  0
 39 40  2  0
 40 41  1  0
 41 42  2  0
 42 43  1  0
 42 44  1  0
 44 45  2  0
 31  6  1  0
 45 39  1  0
 26 10  1  0
 25 16  1  0
 25 20  1  0
M  CHG  1  36   1
M  END
$$$$
CHEMBL5082074_diffdock_8
     RDKit          3D

 45 49  0  0  0  0  0  0  0  0999 V2000
  -15.2840   19.0724  -24.7930 C   0  0  0  0  0  0  0  0  0  0  0  0
  -15.2583   17.9300  -24.1623 C   0  0  0  0  0  0  0  0  0  0  0  0
  -14.7646   16.7409  -24.8209 C   0  0  0  0  0  0  0  0  0  0  0  0
  -14.3217   16.8392  -25.9923 O   0  0  0  0  0  0  0  0  0  0  0  0
  -14.7470   15.4602  -24.2273 N   0  0  0  0  0  0  0  0  0  0  0  0
  -14.9342   14.2317  -24.9238 C   0  0  0  0  0  0  0  0  0  0  0  0
  -13.9690   13.8487  -25.8534 C   0  0  0  0  0  0  0  0  0  0  0  0
  -14.0452   12.6675  -26.5793 C   0  0  0  0  0  0  0  0  0  0  0  0
  -13.0842   12.2563  -27.5243 N   0  0  0  0  0  0  0  0  0  0  0  0
  -12.0090   12.9927  -28.0633 C   0  0  0  0  0  0  0  0  0  0  0  0
  -10.9833   12.4007  -28.6534 N   0  0  0  0  0  0  0  0  0  0  0  0
   -9.9301   13.0216  -29.1882 C   0  0  0  0  0  0  0  0  0  0  0  0
   -9.9381   14.4125  -29.1034 C   0  0  0  0  0  0  0  0  0  0  0  0
  -10.9845   15.0738  -28.4983 C   0  0  0  0  0  0  0  0  0  0  0  0
  -10.9979   16.4845  -28.4172 N   0  0  0  0  0  0  0  0  0  0  0  0
  -11.8887   17.2035  -27.5819 C   0  0  0  0  0  0  0  0  0  0  0  0
  -12.8664   16.7065  -26.7502 C   0  0  0  0  0  0  0  0  0  0  0  0
  -13.5037   17.7390  -26.1351 N   0  0  0  0  0  0  0  0  0  0  0  0
  -14.5982   17.6020  -25.1813 C   0  0  0  0  0  0  0  0  0  0  0  0
  -12.9637   18.8981  -26.5468 C   0  0  0  0  0  0  0  0  0  0  0  0
  -13.2214   20.2148  -26.2534 C   0  0  0  0  0  0  0  0  0  0  0  0
  -12.4812   21.2398  -26.8524 C   0  0  0  0  0  0  0  0  0  0  0  0
  -11.4805   20.9310  -27.7482 C   0  0  0  0  0  0  0  0  0  0  0  0
  -11.2210   19.6109  -28.0433 C   0  0  0  0  0  0  0  0  0  0  0  0
  -11.9491   18.5718  -27.4555 C   0  0  0  0  0  0  0  0  0  0  0  0
  -11.9859   14.3498  -27.9973 N   0  0  0  0  0  0  0  0  0  0  0  0
  -15.1431   11.8169  -26.3706 C   0  0  0  0  0  0  0  0  0  0  0  0
  -15.2330   10.6280  -27.0922 O   0  0  0  0  0  0  0  0  0  0  0  0
  -16.3160    9.7444  -26.8754 C   0  0  0  0  0  0  0  0  0  0  0  0
  -16.0931   12.1891  -25.4585 C   0  0  0  0  0  0  0  0  0  0  0  0
  -15.9995   13.3858  -24.7344 C   0  0  0  0  0  0  0  0  0  0  0  0
  -16.9929   13.7408  -23.7964 N   0  0  0  0  0  0  0  0  0  0  0  0
  -17.0916   13.0569  -22.5413 C   0  0  0  0  0  0  0  0  0  0  0  0
  -17.9139   14.8026  -24.1126 C   0  0  0  0  0  0  0  0  0  0  0  0
  -19.3064   14.2667  -24.3728 C   0  0  0  0  0  0  0  0  0  0  0  0
  -20.2174   14.8379  -23.4335 N   0  0  2  0  0  4  0  0  0  0  0  0
  -21.5167   14.2048  -23.3888 C   0  0  0  0  0  0  0  0  0  0  0  0
  -20.3794   16.2516  -23.7307 C   0  0  0  0  0  0  0  0  0  0  0  0
  -21.5311   16.5433  -24.6020 C   0  0  0  0  0  0  0  0  0  0  0  0
  -22.8315   16.3714  -24.1611 C   0  0  0  0  0  0  0  0  0  0  0  0
  -23.9052   16.6529  -24.9950 C   0  0  0  0  0  0  0  0  0  0  0  0
  -23.7266   17.1092  -26.2801 C   0  0  0  0  0  0  0  0  0  0  0  0
  -25.2399   17.4824  -27.3888 Br  0  0  0  0  0  0  0  0  0  0  0  0
  -22.4383   17.2799  -26.7183 C   0  0  0  0  0  0  0  0  0  0  0  0
  -21.3627   17.0046  -25.9015 C   0  0  0  0  0  0  0  0  0  0  0  0
  1  2  2  0
  2  3  1  0
  3  4  2  0
  3  5  1  0
  5  6  1  0
  6  7  2  0
  7  8  1  0
  8  9  1  0
  9 10  1  0
 10 11  2  0
 11 12  1  0
 12 13  2  0
 13 14  1  0
 14 15  1  0
 15 16  1  0
 16 17  2  0
 17 18  1  0
 18 19  1  0
 18 20  1  0
 20 21  2  0
 21 22  1  0
 22 23  2  0
 23 24  1  0
 24 25  2  0
 14 26  2  0
  8 27  2  0
 27 28  1  0
 28 29  1  0
 27 30  1  0
 30 31  2  0
 31 32  1  0
 32 33  1  0
 32 34  1  0
 34 35  1  0
 35 36  1  0
 36 37  1  6
 36 38  1  0
 38 39  1  0
 39 40  2  0
 40 41  1  0
 41 42  2  0
 42 43  1  0
 42 44  1  0
 44 45  2  0
 31  6  1  0
 45 39  1  0
 26 10  1  0
 25 16  1  0
 25 20  1  0
M  CHG  1  36   1
M  END
$$$$
CHEMBL5082074_diffdock_9
     RDKit          3D

 45 49  0  0  0  0  0  0  0  0999 V2000
  -15.6934   20.6158  -26.2342 C   0  0  0  0  0  0  0  0  0  0  0  0
  -14.7510   19.7178  -26.3289 C   0  0  0  0  0  0  0  0  0  0  0  0
  -15.0820   18.3330  -26.5822 C   0  0  0  0  0  0  0  0  0  0  0  0
  -15.0135   17.9015  -27.7600 O   0  0  0  0  0  0  0  0  0  0  0  0
  -15.4822   17.4219  -25.5809 N   0  0  0  0  0  0  0  0  0  0  0  0
  -15.5852   16.0112  -25.7506 C   0  0  0  0  0  0  0  0  0  0  0  0
  -14.4989   15.3338  -26.3016 C   0  0  0  0  0  0  0  0  0  0  0  0
  -14.4870   13.9597  -26.5008 C   0  0  0  0  0  0  0  0  0  0  0  0
  -13.4030   13.2500  -27.0551 N   0  0  0  0  0  0  0  0  0  0  0  0
  -12.3346   13.7425  -27.8327 C   0  0  0  0  0  0  0  0  0  0  0  0
  -11.3240   12.9710  -28.1994 N   0  0  0  0  0  0  0  0  0  0  0  0
  -10.2782   13.3567  -28.9329 C   0  0  0  0  0  0  0  0  0  0  0  0
  -10.2767   14.6915  -29.3330 C   0  0  0  0  0  0  0  0  0  0  0  0
  -11.3072   15.5335  -28.9758 C   0  0  0  0  0  0  0  0  0  0  0  0
  -11.3112   16.8857  -29.3861 N   0  0  0  0  0  0  0  0  0  0  0  0
  -11.4265   17.9692  -28.4801 C   0  0  0  0  0  0  0  0  0  0  0  0
  -12.0580   17.9948  -27.2573 C   0  0  0  0  0  0  0  0  0  0  0  0
  -11.9441   19.2377  -26.7163 N   0  0  0  0  0  0  0  0  0  0  0  0
  -12.4886   19.6455  -25.4264 C   0  0  0  0  0  0  0  0  0  0  0  0
  -11.2526   20.0232  -27.5585 C   0  0  0  0  0  0  0  0  0  0  0  0
  -10.8597   21.3385  -27.5127 C   0  0  0  0  0  0  0  0  0  0  0  0
  -10.1321   21.9053  -28.5646 C   0  0  0  0  0  0  0  0  0  0  0  0
   -9.8026   21.1400  -29.6624 C   0  0  0  0  0  0  0  0  0  0  0  0
  -10.1959   19.8210  -29.7095 C   0  0  0  0  0  0  0  0  0  0  0  0
  -10.9236   19.2355  -28.6687 C   0  0  0  0  0  0  0  0  0  0  0  0
  -12.3026   15.0387  -28.2393 N   0  0  0  0  0  0  0  0  0  0  0  0
  -15.6187   13.2145  -26.1317 C   0  0  0  0  0  0  0  0  0  0  0  0
  -15.6211   11.8344  -26.3259 O   0  0  0  0  0  0  0  0  0  0  0  0
  -16.7664   11.0718  -25.9979 C   0  0  0  0  0  0  0  0  0  0  0  0
  -16.6876   13.8757  -25.5902 C   0  0  0  0  0  0  0  0  0  0  0  0
  -16.6819   15.2641  -25.3963 C   0  0  0  0  0  0  0  0  0  0  0  0
  -17.7977   15.9180  -24.8306 N   0  0  0  0  0  0  0  0  0  0  0  0
  -18.9977   16.1066  -25.5904 C   0  0  0  0  0  0  0  0  0  0  0  0
  -17.7206   16.3984  -23.4746 C   0  0  0  0  0  0  0  0  0  0  0  0
  -16.2970   16.3688  -22.9583 C   0  0  0  0  0  0  0  0  0  0  0  0
  -16.2737   16.8255  -21.6057 N   0  0  2  0  0  4  0  0  0  0  0  0
  -16.7527   18.1766  -21.4149 C   0  0  0  0  0  0  0  0  0  0  0  0
  -14.9179   16.7173  -21.0927 C   0  0  0  0  0  0  0  0  0  0  0  0
  -14.8513   16.5572  -19.6296 C   0  0  0  0  0  0  0  0  0  0  0  0
  -14.4715   17.6021  -18.8058 C   0  0  0  0  0  0  0  0  0  0  0  0
  -14.4160   17.4343  -17.4287 C   0  0  0  0  0  0  0  0  0  0  0  0
  -14.7317   16.2372  -16.8297 C   0  0  0  0  0  0  0  0  0  0  0  0
  -14.6391   16.0580  -14.9277 Br  0  0  0  0  0  0  0  0  0  0  0  0
  -15.1082   15.2008  -17.6452 C   0  0  0  0  0  0  0  0  0  0  0  0
  -15.1680   15.3530  -19.0138 C   0  0  0  0  0  0  0  0  0  0  0  0
  1  2  2  0
  2  3  1  0
  3  4  2  0
  3  5  1  0
  5  6  1  0
  6  7  2  0
  7  8  1  0
  8  9  1  0
  9 10  1  0
 10 11  2  0
 11 12  1  0
 12 13  2  0
 13 14  1  0
 14 15  1  0
 15 16  1  0
 16 17  2  0
 17 18  1  0
 18 19  1  0
 18 20  1  0
 20 21  2  0
 21 22  1  0
 22 23  2  0
 23 24  1  0
 24 25  2  0
 14 26  2  0
  8 27  2  0
 27 28  1  0
 28 29  1  0
 27 30  1  0
 30 31  2  0
 31 32  1  0
 32 33  1  0
 32 34  1  0
 34 35  1  0
 35 36  1  0
 36 37  1  6
 36 38  1  0
 38 39  1  0
 39 40  2  0
 40 41  1  0
 41 42  2  0
 42 43  1  0
 42 44  1  0
 44 45  2  0
 31  6  1  0
 45 39  1  0
 26 10  1  0
 25 16  1  0
 25 20  1  0
M  CHG  1  36   1
M  END
$$$$
CHEMBL5082074_diffdock_10
     RDKit          3D

 45 49  0  0  0  0  0  0  0  0999 V2000
  -14.8721   20.2107  -27.2618 C   0  0  0  0  0  0  0  0  0  0  0  0
  -15.4924   19.1605  -26.7974 C   0  0  0  0  0  0  0  0  0  0  0  0
  -14.7446   18.0042  -26.3553 C   0  0  0  0  0  0  0  0  0  0  0  0
  -13.6474   17.7466  -26.9100 O   0  0  0  0  0  0  0  0  0  0  0  0
  -15.1713   17.1344  -25.3286 N   0  0  0  0  0  0  0  0  0  0  0  0
  -14.3475   16.1751  -24.6725 C   0  0  0  0  0  0  0  0  0  0  0  0
  -13.3318   15.5672  -25.4083 C   0  0  0  0  0  0  0  0  0  0  0  0
  -12.4641   14.6282  -24.8666 C   0  0  0  0  0  0  0  0  0  0  0  0
  -11.4294   13.9989  -25.5871 N   0  0  0  0  0  0  0  0  0  0  0  0
  -11.1106   14.1197  -26.9555 C   0  0  0  0  0  0  0  0  0  0  0  0
  -10.6881   13.0879  -27.6679 N   0  0  0  0  0  0  0  0  0  0  0  0
  -10.3673   13.1167  -28.9629 C   0  0  0  0  0  0  0  0  0  0  0  0
  -10.4982   14.3527  -29.5931 C   0  0  0  0  0  0  0  0  0  0  0  0
  -10.9347   15.4561  -28.8928 C   0  0  0  0  0  0  0  0  0  0  0  0
  -11.0746   16.7088  -29.5314 N   0  0  0  0  0  0  0  0  0  0  0  0
  -11.7360   17.8117  -28.9361 C   0  0  0  0  0  0  0  0  0  0  0  0
  -12.8173   18.5167  -29.4138 C   0  0  0  0  0  0  0  0  0  0  0  0
  -13.1317   19.5092  -28.5383 N   0  0  0  0  0  0  0  0  0  0  0  0
  -14.2217   20.4633  -28.7061 C   0  0  0  0  0  0  0  0  0  0  0  0
  -12.2800   19.4674  -27.5004 C   0  0  0  0  0  0  0  0  0  0  0  0
  -12.1449   20.2220  -26.3608 C   0  0  0  0  0  0  0  0  0  0  0  0
  -11.1356   19.9431  -25.4330 C   0  0  0  0  0  0  0  0  0  0  0  0
  -10.2635   18.9002  -25.6596 C   0  0  0  0  0  0  0  0  0  0  0  0
  -10.3980   18.1427  -26.8019 C   0  0  0  0  0  0  0  0  0  0  0  0
  -11.3999   18.4049  -27.7415 C   0  0  0  0  0  0  0  0  0  0  0  0
  -11.2272   15.3103  -27.6001 N   0  0  0  0  0  0  0  0  0  0  0  0
  -12.6131   14.2716  -23.5164 C   0  0  0  0  0  0  0  0  0  0  0  0
  -11.7496   13.3302  -22.9592 O   0  0  0  0  0  0  0  0  0  0  0  0
  -11.7238   13.1294  -21.5593 C   0  0  0  0  0  0  0  0  0  0  0  0
  -13.6092   14.8661  -22.7903 C   0  0  0  0  0  0  0  0  0  0  0  0
  -14.4761   15.8127  -23.3540 C   0  0  0  0  0  0  0  0  0  0  0  0
  -15.4914   16.4129  -22.5785 N   0  0  0  0  0  0  0  0  0  0  0  0
  -15.2961   16.6570  -21.1803 C   0  0  0  0  0  0  0  0  0  0  0  0
  -16.7347   16.7800  -23.2071 C   0  0  0  0  0  0  0  0  0  0  0  0
  -17.7639   15.6759  -23.0821 C   0  0  0  0  0  0  0  0  0  0  0  0
  -18.0957   15.1878  -24.3823 N   0  0  2  0  0  4  0  0  0  0  0  0
  -18.6444   16.1804  -25.2795 C   0  0  0  0  0  0  0  0  0  0  0  0
  -19.0348   14.0862  -24.2489 C   0  0  0  0  0  0  0  0  0  0  0  0
  -19.0556   13.1841  -25.4136 C   0  0  0  0  0  0  0  0  0  0  0  0
  -20.0887   13.2169  -26.3336 C   0  0  0  0  0  0  0  0  0  0  0  0
  -20.0914   12.3608  -27.4265 C   0  0  0  0  0  0  0  0  0  0  0  0
  -19.0804   11.4533  -27.6406 C   0  0  0  0  0  0  0  0  0  0  0  0
  -19.1316   10.2957  -29.1625 Br  0  0  0  0  0  0  0  0  0  0  0  0
  -18.0560   11.4196  -26.7294 C   0  0  0  0  0  0  0  0  0  0  0  0
  -18.0400   12.2637  -25.6399 C   0  0  0  0  0  0  0  0  0  0  0  0
  1  2  2  0
  2  3  1  0
  3  4  2  0
  3  5  1  0
  5  6  1  0
  6  7  2  0
  7  8  1  0
  8  9  1  0
  9 10  1  0
 10 11  2  0
 11 12  1  0
 12 13  2  0
 13 14  1  0
 14 15  1  0
 15 16  1  0
 16 17  2  0
 17 18  1  0
 18 19  1  0
 18 20  1  0
 20 21  2  0
 21 22  1  0
 22 23  2  0
 23 24  1  0
 24 25  2  0
 14 26  2  0
  8 27  2  0
 27 28  1  0
 28 29  1  0
 27 30  1  0
 30 31  2  0
 31 32  1  0
 32 33  1  0
 32 34  1  0
 34 35  1  0
 35 36  1  0
 36 37  1  6
 36 38  1  0
 38 39  1  0
 39 40  2  0
 40 41  1  0
 41 42  2  0
 42 43  1  0
 42 44  1  0
 44 45  2  0
 31  6  1  0
 45 39  1  0
 26 10  1  0
 25 16  1  0
 25 20  1  0
M  CHG  1  36   1
M  END
$$$$
CHEMBL69071_diffdock_1
     RDKit          3D

 36 40  0  0  0  0  0  0  0  0999 V2000
  -14.9088   17.3478  -24.8547 C   0  0  0  0  0  0  0  0  0  0  0  0
  -15.2405   15.9141  -25.0974 C   0  0  0  0  0  0  0  0  0  0  0  0
  -16.2598   15.2609  -24.5028 C   0  0  0  0  0  0  0  0  0  0  0  0
  -16.2583   13.9261  -24.9250 C   0  0  0  0  0  0  0  0  0  0  0  0
  -17.1228   12.8178  -24.5810 C   0  0  0  0  0  0  0  0  0  0  0  0
  -18.2845   13.1389  -24.2910 O   0  0  0  0  0  0  0  0  0  0  0  0
  -17.2803   11.4890  -24.4115 N   0  0  0  0  0  4  0  0  0  0  0  0
  -17.8214   11.1045  -23.0225 C   0  0  0  0  0  0  0  0  0  0  0  0
  -17.7081    9.6412  -22.8409 C   0  0  1  0  0  0  0  0  0  0  0  0
  -18.0403    9.3450  -21.3886 C   0  0  0  0  0  0  0  0  0  0  0  0
  -18.7568    9.0262  -23.6368 N   0  0  0  0  0  0  0  0  0  0  0  0
  -18.5495    9.4369  -24.9817 C   0  0  2  0  0  0  0  0  0  0  0  0
  -17.4444    8.6990  -25.6626 C   0  0  0  0  0  0  0  0  0  0  0  0
  -18.3611   10.9472  -25.1524 C   0  0  0  0  0  0  0  0  0  0  0  0
  -15.2141   13.8494  -25.7699 N   0  0  0  0  0  0  0  0  0  0  0  0
  -14.6103   15.0133  -25.8780 C   0  0  0  0  0  0  0  0  0  0  0  0
  -13.4711   15.2639  -26.7389 C   0  0  0  0  0  0  0  0  0  0  0  0
  -12.8635   14.2964  -27.3964 C   0  0  0  0  0  0  0  0  0  0  0  0
  -13.2834   12.9094  -27.5428 C   0  0  0  0  0  0  0  0  0  0  0  0
  -14.3064   12.4176  -27.0163 O   0  0  0  0  0  0  0  0  0  0  0  0
  -12.3216   12.2451  -28.3764 N   0  0  0  0  0  0  0  0  0  0  0  0
  -11.3142   13.1693  -28.7547 C   0  0  0  0  0  0  0  0  0  0  0  0
  -10.2156   13.0131  -29.5245 N   0  0  0  0  0  0  0  0  0  0  0  0
   -9.3870   14.0431  -29.7555 C   0  0  0  0  0  0  0  0  0  0  0  0
   -9.6696   15.2245  -29.2090 N   0  0  0  0  0  0  0  0  0  0  0  0
  -10.7625   15.4279  -28.4280 C   0  0  0  0  0  0  0  0  0  0  0  0
  -11.0132   16.7037  -27.8732 N   0  0  0  0  0  0  0  0  0  0  0  0
  -10.3592   17.8369  -28.4089 C   0  0  0  0  0  0  0  0  0  0  0  0
   -9.8091   17.8010  -29.7010 C   0  0  0  0  0  0  0  0  0  0  0  0
   -9.1745   18.8951  -30.2359 C   0  0  0  0  0  0  0  0  0  0  0  0
   -9.0812   20.0445  -29.4810 C   0  0  0  0  0  0  0  0  0  0  0  0
   -8.4746   21.1610  -29.9334 F   0  0  0  0  0  0  0  0  0  0  0  0
   -9.6228   20.0893  -28.2007 C   0  0  0  0  0  0  0  0  0  0  0  0
   -9.4942   21.5633  -27.2533 Cl  0  0  0  0  0  0  0  0  0  0  0  0
  -10.2497   18.9901  -27.6888 C   0  0  0  0  0  0  0  0  0  0  0  0
  -11.6147   14.3980  -28.1826 C   0  0  0  0  0  0  0  0  0  0  0  0
  1  2  1  0
  2  3  1  0
  3  4  2  0
  4  5  1  0
  5  6  2  0
  7  5  1  0
  7  8  1  0
  8  9  1  0
  9 10  1  1
  9 11  1  0
 11 12  1  0
 12 13  1  1
 12 14  1  0
  4 15  1  0
 15 16  1  0
 16 17  1  0
 17 18  2  0
 18 19  1  0
 19 20  2  0
 19 21  1  0
 21 22  1  0
 22 23  2  0
 23 24  1  0
 24 25  2  0
 25 26  1  0
 26 27  1  0
 27 28  1  0
 28 29  2  0
 29 30  1  0
 30 31  2  0
 31 32  1  0
 31 33  1  0
 33 34  1  0
 33 35  2  0
 26 36  2  0
 16  2  2  0
 36 18  1  0
 14  7  1  0
 36 22  1  0
 35 28  1  0
M  CHG  1   7   1
M  END
$$$$
CHEMBL69071_diffdock_2
     RDKit          3D

 36 40  0  0  0  0  0  0  0  0999 V2000
  -15.1037   17.6522  -25.4671 C   0  0  0  0  0  0  0  0  0  0  0  0
  -15.5251   16.2405  -25.6995 C   0  0  0  0  0  0  0  0  0  0  0  0
  -16.6035   15.6674  -25.1267 C   0  0  0  0  0  0  0  0  0  0  0  0
  -16.6806   14.3290  -25.5297 C   0  0  0  0  0  0  0  0  0  0  0  0
  -17.6283   13.2875  -25.1963 C   0  0  0  0  0  0  0  0  0  0  0  0
  -18.7511   13.6963  -24.8663 O   0  0  0  0  0  0  0  0  0  0  0  0
  -17.8948   11.9720  -25.0626 N   0  0  0  0  0  4  0  0  0  0  0  0
  -19.2304   11.6825  -24.3538 C   0  0  0  0  0  0  0  0  0  0  0  0
  -19.3058   10.2437  -24.0204 C   0  0  1  0  0  0  0  0  0  0  0  0
  -20.5246   10.0547  -23.1338 C   0  0  0  0  0  0  0  0  0  0  0  0
  -19.5806    9.5294  -25.2556 N   0  0  0  0  0  0  0  0  0  0  0  0
  -18.5233    9.8368  -26.1546 C   0  0  2  0  0  0  0  0  0  0  0  0
  -17.2650    9.0857  -25.8681 C   0  0  0  0  0  0  0  0  0  0  0  0
  -18.2279   11.3340  -26.2842 C   0  0  0  0  0  0  0  0  0  0  0  0
  -15.6200   14.1681  -26.3417 N   0  0  0  0  0  0  0  0  0  0  0  0
  -14.9354   15.2867  -26.4480 C   0  0  0  0  0  0  0  0  0  0  0  0
  -13.7572   15.4456  -27.2776 C   0  0  0  0  0  0  0  0  0  0  0  0
  -13.1197   14.4140  -27.7942 C   0  0  0  0  0  0  0  0  0  0  0  0
  -13.5436   13.0209  -27.8254 C   0  0  0  0  0  0  0  0  0  0  0  0
  -14.6022   12.5889  -27.3171 O   0  0  0  0  0  0  0  0  0  0  0  0
  -12.5385   12.2717  -28.5254 N   0  0  0  0  0  0  0  0  0  0  0  0
  -11.5004   13.1489  -28.9314 C   0  0  0  0  0  0  0  0  0  0  0  0
  -10.3578   12.9112  -29.6109 N   0  0  0  0  0  0  0  0  0  0  0  0
   -9.5061   13.9093  -29.8926 C   0  0  0  0  0  0  0  0  0  0  0  0
   -9.8102   15.1412  -29.4874 N   0  0  0  0  0  0  0  0  0  0  0  0
  -10.9474   15.4270  -28.8012 C   0  0  0  0  0  0  0  0  0  0  0  0
  -11.2193   16.7536  -28.3954 N   0  0  0  0  0  0  0  0  0  0  0  0
  -10.3904   17.8047  -28.8500 C   0  0  0  0  0  0  0  0  0  0  0  0
  -10.1022   18.8994  -28.0181 C   0  0  0  0  0  0  0  0  0  0  0  0
   -9.2956   19.9257  -28.4446 C   0  0  0  0  0  0  0  0  0  0  0  0
   -8.7649   19.8699  -29.7155 C   0  0  0  0  0  0  0  0  0  0  0  0
   -7.9641   20.8365  -30.2090 F   0  0  0  0  0  0  0  0  0  0  0  0
   -9.0447   18.7902  -30.5463 C   0  0  0  0  0  0  0  0  0  0  0  0
   -8.3592   18.7364  -32.1629 Cl  0  0  0  0  0  0  0  0  0  0  0  0
   -9.8488   17.7807  -30.1016 C   0  0  0  0  0  0  0  0  0  0  0  0
  -11.8235   14.4305  -28.5068 C   0  0  0  0  0  0  0  0  0  0  0  0
  1  2  1  0
  2  3  1  0
  3  4  2  0
  4  5  1  0
  5  6  2  0
  7  5  1  0
  7  8  1  0
  8  9  1  0
  9 10  1  1
  9 11  1  0
 11 12  1  0
 12 13  1  1
 12 14  1  0
  4 15  1  0
 15 16  1  0
 16 17  1  0
 17 18  2  0
 18 19  1  0
 19 20  2  0
 19 21  1  0
 21 22  1  0
 22 23  2  0
 23 24  1  0
 24 25  2  0
 25 26  1  0
 26 27  1  0
 27 28  1  0
 28 29  2  0
 29 30  1  0
 30 31  2  0
 31 32  1  0
 31 33  1  0
 33 34  1  0
 33 35  2  0
 26 36  2  0
 16  2  2  0
 36 18  1  0
 14  7  1  0
 36 22  1  0
 35 28  1  0
M  CHG  1   7   1
M  END
$$$$
CHEMBL69071_diffdock_3
     RDKit          3D

 36 40  0  0  0  0  0  0  0  0999 V2000
  -15.0852   17.4017  -24.8501 C   0  0  0  0  0  0  0  0  0  0  0  0
  -15.3488   15.9509  -25.0740 C   0  0  0  0  0  0  0  0  0  0  0  0
  -16.3012   15.2455  -24.4299 C   0  0  0  0  0  0  0  0  0  0  0  0
  -16.2466   13.9110  -24.8493 C   0  0  0  0  0  0  0  0  0  0  0  0
  -17.0315   12.7586  -24.4622 C   0  0  0  0  0  0  0  0  0  0  0  0
  -17.5855   12.8576  -23.3577 O   0  0  0  0  0  0  0  0  0  0  0  0
  -17.4864   11.5231  -24.7556 N   0  0  0  0  0  4  0  0  0  0  0  0
  -18.0115   10.7525  -23.5307 C   0  0  0  0  0  0  0  0  0  0  0  0
  -18.2347    9.3382  -23.9011 C   0  0  1  0  0  0  0  0  0  0  0  0
  -18.5324    8.5828  -22.6173 C   0  0  0  0  0  0  0  0  0  0  0  0
  -19.4482    9.2884  -24.6988 N   0  0  0  0  0  0  0  0  0  0  0  0
  -19.2376   10.1309  -25.8242 C   0  0  2  0  0  0  0  0  0  0  0  0
  -18.3840    9.5078  -26.8790 C   0  0  0  0  0  0  0  0  0  0  0  0
  -18.7101   11.5249  -25.4719 C   0  0  0  0  0  0  0  0  0  0  0  0
  -15.2414   13.8878  -25.7433 N   0  0  0  0  0  0  0  0  0  0  0  0
  -14.7083   15.0826  -25.8824 C   0  0  0  0  0  0  0  0  0  0  0  0
  -13.6271   15.3913  -26.7974 C   0  0  0  0  0  0  0  0  0  0  0  0
  -13.0021   14.4560  -27.4846 C   0  0  0  0  0  0  0  0  0  0  0  0
  -13.3724   13.0557  -27.6370 C   0  0  0  0  0  0  0  0  0  0  0  0
  -14.3601   12.5182  -27.0881 O   0  0  0  0  0  0  0  0  0  0  0  0
  -12.4104   12.4392  -28.5064 N   0  0  0  0  0  0  0  0  0  0  0  0
  -11.4507   13.4062  -28.9012 C   0  0  0  0  0  0  0  0  0  0  0  0
  -10.3698   13.3020  -29.7041 N   0  0  0  0  0  0  0  0  0  0  0  0
   -9.5884   14.3661  -29.9451 C   0  0  0  0  0  0  0  0  0  0  0  0
   -9.9002   15.5290  -29.3754 N   0  0  0  0  0  0  0  0  0  0  0  0
  -10.9769   15.6805  -28.5609 C   0  0  0  0  0  0  0  0  0  0  0  0
  -11.2604   16.9389  -27.9826 N   0  0  0  0  0  0  0  0  0  0  0  0
  -10.4787   18.0615  -28.3398 C   0  0  0  0  0  0  0  0  0  0  0  0
  -10.3358   19.1441  -27.4561 C   0  0  0  0  0  0  0  0  0  0  0  0
   -9.5766   20.2393  -27.7878 C   0  0  0  0  0  0  0  0  0  0  0  0
   -8.9481   20.2657  -29.0141 C   0  0  0  0  0  0  0  0  0  0  0  0
   -8.1852   21.3033  -29.4148 F   0  0  0  0  0  0  0  0  0  0  0  0
   -9.0838   19.1985  -29.8956 C   0  0  0  0  0  0  0  0  0  0  0  0
   -8.2751   19.2500  -31.4544 Cl  0  0  0  0  0  0  0  0  0  0  0  0
   -9.8431   18.1196  -29.5452 C   0  0  0  0  0  0  0  0  0  0  0  0
  -11.7815   14.6154  -28.3048 C   0  0  0  0  0  0  0  0  0  0  0  0
  1  2  1  0
  2  3  1  0
  3  4  2  0
  4  5  1  0
  5  6  2  0
  7  5  1  0
  7  8  1  0
  8  9  1  0
  9 10  1  1
  9 11  1  0
 11 12  1  0
 12 13  1  6
 12 14  1  0
  4 15  1  0
 15 16  1  0
 16 17  1  0
 17 18  2  0
 18 19  1  0
 19 20  2  0
 19 21  1  0
 21 22  1  0
 22 23  2  0
 23 24  1  0
 24 25  2  0
 25 26  1  0
 26 27  1  0
 27 28  1  0
 28 29  2  0
 29 30  1  0
 30 31  2  0
 31 32  1  0
 31 33  1  0
 33 34  1  0
 33 35  2  0
 26 36  2  0
 16  2  2  0
 36 18  1  0
 14  7  1  0
 36 22  1  0
 35 28  1  0
M  CHG  1   7   1
M  END
$$$$
CHEMBL69071_diffdock_4
     RDKit          3D

 36 40  0  0  0  0  0  0  0  0999 V2000
  -15.2694   18.1107  -25.4709 C   0  0  0  0  0  0  0  0  0  0  0  0
  -15.6213   16.6616  -25.4412 C   0  0  0  0  0  0  0  0  0  0  0  0
  -16.7110   16.1588  -24.8255 C   0  0  0  0  0  0  0  0  0  0  0  0
  -16.7116   14.7653  -24.9587 C   0  0  0  0  0  0  0  0  0  0  0  0
  -17.6380   13.7633  -24.4772 C   0  0  0  0  0  0  0  0  0  0  0  0
  -18.5288   14.1979  -23.7326 O   0  0  0  0  0  0  0  0  0  0  0  0
  -18.0275   12.4722  -24.4507 N   0  0  0  0  0  4  0  0  0  0  0  0
  -17.1607   11.5487  -25.3258 C   0  0  0  0  0  0  0  0  0  0  0  0
  -17.8156   10.2277  -25.4415 C   0  0  1  0  0  0  0  0  0  0  0  0
  -17.0447    9.4378  -26.4851 C   0  0  0  0  0  0  0  0  0  0  0  0
  -17.6211    9.5386  -24.1770 N   0  0  0  0  0  0  0  0  0  0  0  0
  -18.1963   10.3575  -23.1675 C   0  0  2  0  0  0  0  0  0  0  0  0
  -19.6860   10.2727  -23.1137 C   0  0  0  0  0  0  0  0  0  0  0  0
  -17.7513   11.8220  -23.2212 C   0  0  0  0  0  0  0  0  0  0  0  0
  -15.5966   14.5015  -25.6639 N   0  0  0  0  0  0  0  0  0  0  0  0
  -14.9497   15.6103  -25.9526 C   0  0  0  0  0  0  0  0  0  0  0  0
  -13.7285   15.6622  -26.7321 C   0  0  0  0  0  0  0  0  0  0  0  0
  -13.2165   14.5908  -27.3045 C   0  0  0  0  0  0  0  0  0  0  0  0
  -13.7256   13.2265  -27.2730 C   0  0  0  0  0  0  0  0  0  0  0  0
  -14.7457   12.8632  -26.6460 O   0  0  0  0  0  0  0  0  0  0  0  0
  -12.8521   12.4134  -28.0713 N   0  0  0  0  0  0  0  0  0  0  0  0
  -11.8139   13.2228  -28.5994 C   0  0  0  0  0  0  0  0  0  0  0  0
  -10.7704   12.9118  -29.3984 N   0  0  0  0  0  0  0  0  0  0  0  0
   -9.8959   13.8539  -29.7836 C   0  0  0  0  0  0  0  0  0  0  0  0
  -10.0773   15.1040  -29.3612 N   0  0  0  0  0  0  0  0  0  0  0  0
  -11.1117   15.4628  -28.5567 C   0  0  0  0  0  0  0  0  0  0  0  0
  -11.2553   16.8054  -28.1382 N   0  0  0  0  0  0  0  0  0  0  0  0
  -10.2922   17.7636  -28.5293 C   0  0  0  0  0  0  0  0  0  0  0  0
  -10.2220   19.0108  -27.8867 C   0  0  0  0  0  0  0  0  0  0  0  0
   -9.2893   19.9498  -28.2531 C   0  0  0  0  0  0  0  0  0  0  0  0
   -8.4110   19.6517  -29.2726 C   0  0  0  0  0  0  0  0  0  0  0  0
   -7.4662   20.5185  -29.6913 F   0  0  0  0  0  0  0  0  0  0  0  0
   -8.4729   18.4195  -29.9147 C   0  0  0  0  0  0  0  0  0  0  0  0
   -7.3449   18.0574  -31.2120 Cl  0  0  0  0  0  0  0  0  0  0  0  0
   -9.4079   17.5007  -29.5339 C   0  0  0  0  0  0  0  0  0  0  0  0
  -12.0089   14.5238  -28.1561 C   0  0  0  0  0  0  0  0  0  0  0  0
  1  2  1  0
  2  3  1  0
  3  4  2  0
  4  5  1  0
  5  6  2  0
  7  5  1  0
  7  8  1  0
  8  9  1  0
  9 10  1  6
  9 11  1  0
 11 12  1  0
 12 13  1  6
 12 14  1  0
  4 15  1  0
 15 16  1  0
 16 17  1  0
 17 18  2  0
 18 19  1  0
 19 20  2  0
 19 21  1  0
 21 22  1  0
 22 23  2  0
 23 24  1  0
 24 25  2  0
 25 26  1  0
 26 27  1  0
 27 28  1  0
 28 29  2  0
 29 30  1  0
 30 31  2  0
 31 32  1  0
 31 33  1  0
 33 34  1  0
 33 35  2  0
 26 36  2  0
 16  2  2  0
 36 18  1  0
 14  7  1  0
 36 22  1  0
 35 28  1  0
M  CHG  1   7   1
M  END
$$$$
CHEMBL69071_diffdock_5
     RDKit          3D

 36 40  0  0  0  0  0  0  0  0999 V2000
  -15.3029   17.5334  -25.3743 C   0  0  0  0  0  0  0  0  0  0  0  0
  -15.5438   16.0710  -25.5413 C   0  0  0  0  0  0  0  0  0  0  0  0
  -16.5195   15.3867  -24.9095 C   0  0  0  0  0  0  0  0  0  0  0  0
  -16.4343   14.0346  -25.2622 C   0  0  0  0  0  0  0  0  0  0  0  0
  -17.2269   12.8935  -24.8579 C   0  0  0  0  0  0  0  0  0  0  0  0
  -18.3693   13.1708  -24.4643 O   0  0  0  0  0  0  0  0  0  0  0  0
  -17.3234   11.5585  -24.6913 N   0  0  0  0  0  4  0  0  0  0  0  0
  -17.6653   11.1401  -23.2498 C   0  0  0  0  0  0  0  0  0  0  0  0
  -17.4881    9.6786  -23.1092 C   0  0  1  0  0  0  0  0  0  0  0  0
  -17.6173    9.3540  -21.6308 C   0  0  0  0  0  0  0  0  0  0  0  0
  -18.6150    9.0427  -23.7703 N   0  0  0  0  0  0  0  0  0  0  0  0
  -18.5986    9.4767  -25.1237 C   0  0  2  0  0  0  0  0  0  0  0  0
  -17.5727    8.7811  -25.9563 C   0  0  0  0  0  0  0  0  0  0  0  0
  -18.4769   10.9940  -25.2926 C   0  0  0  0  0  0  0  0  0  0  0  0
  -15.3881   13.9800  -26.1064 N   0  0  0  0  0  0  0  0  0  0  0  0
  -14.8589   15.1724  -26.2770 C   0  0  0  0  0  0  0  0  0  0  0  0
  -13.7385   15.4492  -27.1543 C   0  0  0  0  0  0  0  0  0  0  0  0
  -13.0233   14.4870  -27.7022 C   0  0  0  0  0  0  0  0  0  0  0  0
  -13.2614   13.0510  -27.6504 C   0  0  0  0  0  0  0  0  0  0  0  0
  -14.2004   12.5087  -27.0261 O   0  0  0  0  0  0  0  0  0  0  0  0
  -12.2382   12.4080  -28.4257 N   0  0  0  0  0  0  0  0  0  0  0  0
  -11.3681   13.3931  -28.9590 C   0  0  0  0  0  0  0  0  0  0  0  0
  -10.2745   13.2754  -29.7426 N   0  0  0  0  0  0  0  0  0  0  0  0
   -9.5923   14.3617  -30.1371 C   0  0  0  0  0  0  0  0  0  0  0  0
  -10.0156   15.5603  -29.7393 N   0  0  0  0  0  0  0  0  0  0  0  0
  -11.1095   15.7267  -28.9510 C   0  0  0  0  0  0  0  0  0  0  0  0
  -11.5134   17.0233  -28.5585 N   0  0  0  0  0  0  0  0  0  0  0  0
  -10.8416   18.1509  -29.0840 C   0  0  0  0  0  0  0  0  0  0  0  0
  -11.4435   19.4199  -29.0550 C   0  0  0  0  0  0  0  0  0  0  0  0
  -10.8016   20.5247  -29.5581 C   0  0  0  0  0  0  0  0  0  0  0  0
   -9.5432   20.3732  -30.0998 C   0  0  0  0  0  0  0  0  0  0  0  0
   -8.8466   21.4075  -30.6137 F   0  0  0  0  0  0  0  0  0  0  0  0
   -8.9394   19.1208  -30.1329 C   0  0  0  0  0  0  0  0  0  0  0  0
   -7.3350   18.9471  -30.8272 Cl  0  0  0  0  0  0  0  0  0  0  0  0
   -9.5956   18.0360  -29.6268 C   0  0  0  0  0  0  0  0  0  0  0  0
  -11.8147   14.6395  -28.5414 C   0  0  0  0  0  0  0  0  0  0  0  0
  1  2  1  0
  2  3  1  0
  3  4  2  0
  4  5  1  0
  5  6  2  0
  7  5  1  0
  7  8  1  0
  8  9  1  0
  9 10  1  1
  9 11  1  0
 11 12  1  0
 12 13  1  6
 12 14  1  0
  4 15  1  0
 15 16  1  0
 16 17  1  0
 17 18  2  0
 18 19  1  0
 19 20  2  0
 19 21  1  0
 21 22  1  0
 22 23  2  0
 23 24  1  0
 24 25  2  0
 25 26  1  0
 26 27  1  0
 27 28  1  0
 28 29  2  0
 29 30  1  0
 30 31  2  0
 31 32  1  0
 31 33  1  0
 33 34  1  0
 33 35  2  0
 26 36  2  0
 16  2  2  0
 36 18  1  0
 14  7  1  0
 36 22  1  0
 35 28  1  0
M  CHG  1   7   1
M  END
$$$$
CHEMBL69071_diffdock_6
     RDKit          3D

 36 40  0  0  0  0  0  0  0  0999 V2000
  -15.5273   16.9349  -25.2500 C   0  0  0  0  0  0  0  0  0  0  0  0
  -15.6632   15.4932  -25.6071 C   0  0  0  0  0  0  0  0  0  0  0  0
  -16.6093   14.6738  -25.1041 C   0  0  0  0  0  0  0  0  0  0  0  0
  -16.4218   13.3855  -25.6188 C   0  0  0  0  0  0  0  0  0  0  0  0
  -17.1474   12.1544  -25.3911 C   0  0  0  0  0  0  0  0  0  0  0  0
  -16.5401   11.1268  -25.7255 O   0  0  0  0  0  0  0  0  0  0  0  0
  -18.2645   11.5401  -24.9505 N   0  0  0  0  0  4  0  0  0  0  0  0
  -18.4129   10.0937  -25.4563 C   0  0  0  0  0  0  0  0  0  0  0  0
  -19.7733    9.6037  -25.1458 C   0  0  1  0  0  0  0  0  0  0  0  0
  -19.9405    8.2716  -25.8564 C   0  0  0  0  0  0  0  0  0  0  0  0
  -19.8134    9.3183  -23.7215 N   0  0  0  0  0  0  0  0  0  0  0  0
  -19.4916   10.5282  -23.0486 C   0  0  2  0  0  0  0  0  0  0  0  0
  -20.6251   11.4989  -23.0006 C   0  0  0  0  0  0  0  0  0  0  0  0
  -18.2270   11.2169  -23.5704 C   0  0  0  0  0  0  0  0  0  0  0  0
  -15.3488   13.5048  -26.4216 N   0  0  0  0  0  0  0  0  0  0  0  0
  -14.8966   14.7403  -26.4216 C   0  0  0  0  0  0  0  0  0  0  0  0
  -13.7710   15.1965  -27.2131 C   0  0  0  0  0  0  0  0  0  0  0  0
  -12.9772   14.3589  -27.8503 C   0  0  0  0  0  0  0  0  0  0  0  0
  -13.1364   12.9205  -28.0144 C   0  0  0  0  0  0  0  0  0  0  0  0
  -14.0725   12.2491  -27.5261 O   0  0  0  0  0  0  0  0  0  0  0  0
  -12.0425   12.4462  -28.8142 N   0  0  0  0  0  0  0  0  0  0  0  0
  -11.2044   13.5389  -29.1542 C   0  0  0  0  0  0  0  0  0  0  0  0
  -10.0694   13.5884  -29.8844 N   0  0  0  0  0  0  0  0  0  0  0  0
   -9.4312   14.7520  -30.0834 C   0  0  0  0  0  0  0  0  0  0  0  0
   -9.9398   15.8591  -29.5451 N   0  0  0  0  0  0  0  0  0  0  0  0
  -11.0782   15.8570  -28.8034 C   0  0  0  0  0  0  0  0  0  0  0  0
  -11.5728   17.0626  -28.2555 N   0  0  0  0  0  0  0  0  0  0  0  0
  -10.8697   18.2688  -28.4779 C   0  0  0  0  0  0  0  0  0  0  0  0
  -10.8435   19.2731  -27.4961 C   0  0  0  0  0  0  0  0  0  0  0  0
  -10.1616   20.4481  -27.6966 C   0  0  0  0  0  0  0  0  0  0  0  0
   -9.4943   20.6344  -28.8881 C   0  0  0  0  0  0  0  0  0  0  0  0
   -8.8016   21.7588  -29.1621 F   0  0  0  0  0  0  0  0  0  0  0  0
   -9.5146   19.6458  -29.8660 C   0  0  0  0  0  0  0  0  0  0  0  0
   -8.6580   19.9011  -31.3785 Cl  0  0  0  0  0  0  0  0  0  0  0  0
  -10.1986   18.4852  -29.6455 C   0  0  0  0  0  0  0  0  0  0  0  0
  -11.7401   14.6891  -28.5909 C   0  0  0  0  0  0  0  0  0  0  0  0
  1  2  1  0
  2  3  1  0
  3  4  2  0
  4  5  1  0
  5  6  2  0
  7  5  1  0
  7  8  1  0
  8  9  1  0
  9 10  1  6
  9 11  1  0
 11 12  1  0
 12 13  1  6
 12 14  1  0
  4 15  1  0
 15 16  1  0
 16 17  1  0
 17 18  2  0
 18 19  1  0
 19 20  2  0
 19 21  1  0
 21 22  1  0
 22 23  2  0
 23 24  1  0
 24 25  2  0
 25 26  1  0
 26 27  1  0
 27 28  1  0
 28 29  2  0
 29 30  1  0
 30 31  2  0
 31 32  1  0
 31 33  1  0
 33 34  1  0
 33 35  2  0
 26 36  2  0
 16  2  2  0
 36 18  1  0
 14  7  1  0
 36 22  1  0
 35 28  1  0
M  CHG  1   7   1
M  END
$$$$
CHEMBL69071_diffdock_7
     RDKit          3D

 36 40  0  0  0  0  0  0  0  0999 V2000
  -15.1284   17.7121  -25.1054 C   0  0  0  0  0  0  0  0  0  0  0  0
  -15.4561   16.2687  -25.2888 C   0  0  0  0  0  0  0  0  0  0  0  0
  -16.4219   15.6183  -24.6079 C   0  0  0  0  0  0  0  0  0  0  0  0
  -16.4312   14.2734  -24.9962 C   0  0  0  0  0  0  0  0  0  0  0  0
  -17.2538   13.1637  -24.5650 C   0  0  0  0  0  0  0  0  0  0  0  0
  -17.5907   13.2025  -23.3727 O   0  0  0  0  0  0  0  0  0  0  0  0
  -17.8822   12.0093  -24.8681 N   0  0  0  0  0  4  0  0  0  0  0  0
  -17.1222   10.7535  -24.4042 C   0  0  0  0  0  0  0  0  0  0  0  0
  -17.7443    9.5545  -25.0065 C   0  0  1  0  0  0  0  0  0  0  0  0
  -16.8318    8.3786  -24.7029 C   0  0  0  0  0  0  0  0  0  0  0  0
  -18.9851    9.3080  -24.2915 N   0  0  0  0  0  0  0  0  0  0  0  0
  -19.7816   10.4769  -24.4314 C   0  0  2  0  0  0  0  0  0  0  0  0
  -20.4413   10.5879  -25.7663 C   0  0  0  0  0  0  0  0  0  0  0  0
  -19.0476   11.7781  -24.0942 C   0  0  0  0  0  0  0  0  0  0  0  0
  -15.4480   14.1880  -25.9106 N   0  0  0  0  0  0  0  0  0  0  0  0
  -14.8697   15.3562  -26.0896 C   0  0  0  0  0  0  0  0  0  0  0  0
  -13.7974   15.5987  -27.0346 C   0  0  0  0  0  0  0  0  0  0  0  0
  -13.0389   14.6255  -27.4986 C   0  0  0  0  0  0  0  0  0  0  0  0
  -13.2627   13.1895  -27.4023 C   0  0  0  0  0  0  0  0  0  0  0  0
  -14.2314   12.6594  -26.8138 O   0  0  0  0  0  0  0  0  0  0  0  0
  -12.1869   12.5306  -28.0877 N   0  0  0  0  0  0  0  0  0  0  0  0
  -11.2978   13.5057  -28.6077 C   0  0  0  0  0  0  0  0  0  0  0  0
  -10.1574   13.3723  -29.3188 N   0  0  0  0  0  0  0  0  0  0  0  0
   -9.4655   14.4514  -29.7158 C   0  0  0  0  0  0  0  0  0  0  0  0
   -9.9262   15.6589  -29.3937 N   0  0  0  0  0  0  0  0  0  0  0  0
  -11.0678   15.8412  -28.6800 C   0  0  0  0  0  0  0  0  0  0  0  0
  -11.5100   17.1467  -28.3660 N   0  0  0  0  0  0  0  0  0  0  0  0
  -10.9092   18.2573  -29.0019 C   0  0  0  0  0  0  0  0  0  0  0  0
  -10.7553   19.4754  -28.3194 C   0  0  0  0  0  0  0  0  0  0  0  0
  -10.1701   20.5614  -28.9228 C   0  0  0  0  0  0  0  0  0  0  0  0
   -9.7298   20.4420  -30.2234 C   0  0  0  0  0  0  0  0  0  0  0  0
   -9.1447   21.4606  -30.8864 F   0  0  0  0  0  0  0  0  0  0  0  0
   -9.8779   19.2400  -30.9071 C   0  0  0  0  0  0  0  0  0  0  0  0
   -9.3105   19.1067  -32.5645 Cl  0  0  0  0  0  0  0  0  0  0  0  0
  -10.4622   18.1730  -30.2878 C   0  0  0  0  0  0  0  0  0  0  0  0
  -11.7836   14.7614  -28.2692 C   0  0  0  0  0  0  0  0  0  0  0  0
  1  2  1  0
  2  3  1  0
  3  4  2  0
  4  5  1  0
  5  6  2  0
  7  5  1  0
  7  8  1  0
  8  9  1  0
  9 10  1  1
  9 11  1  0
 11 12  1  0
 12 13  1  6
 12 14  1  0
  4 15  1  0
 15 16  1  0
 16 17  1  0
 17 18  2  0
 18 19  1  0
 19 20  2  0
 19 21  1  0
 21 22  1  0
 22 23  2  0
 23 24  1  0
 24 25  2  0
 25 26  1  0
 26 27  1  0
 27 28  1  0
 28 29  2  0
 29 30  1  0
 30 31  2  0
 31 32  1  0
 31 33  1  0
 33 34  1  0
 33 35  2  0
 26 36  2  0
 16  2  2  0
 36 18  1  0
 14  7  1  0
 36 22  1  0
 35 28  1  0
M  CHG  1   7   1
M  END
$$$$
CHEMBL69071_diffdock_8
     RDKit          3D

 36 40  0  0  0  0  0  0  0  0999 V2000
  -15.8682   17.0200  -25.3633 C   0  0  0  0  0  0  0  0  0  0  0  0
  -15.9936   15.6050  -25.8177 C   0  0  0  0  0  0  0  0  0  0  0  0
  -16.9361   14.7475  -25.3751 C   0  0  0  0  0  0  0  0  0  0  0  0
  -16.7385   13.4983  -25.9751 C   0  0  0  0  0  0  0  0  0  0  0  0
  -17.4569   12.2501  -25.8341 C   0  0  0  0  0  0  0  0  0  0  0  0
  -16.9124   11.2762  -26.3744 O   0  0  0  0  0  0  0  0  0  0  0  0
  -18.5274   11.5848  -25.3538 N   0  0  0  0  0  4  0  0  0  0  0  0
  -19.3932   10.9370  -26.4495 C   0  0  0  0  0  0  0  0  0  0  0  0
  -20.6641   10.4682  -25.8559 C   0  0  1  0  0  0  0  0  0  0  0  0
  -21.5643   10.0472  -27.0047 C   0  0  0  0  0  0  0  0  0  0  0  0
  -20.3678    9.2620  -25.1017 N   0  0  0  0  0  0  0  0  0  0  0  0
  -19.3951    9.6130  -24.1265 C   0  0  2  0  0  0  0  0  0  0  0  0
  -19.9670   10.3406  -22.9547 C   0  0  0  0  0  0  0  0  0  0  0  0
  -18.1932   10.3778  -24.6888 C   0  0  0  0  0  0  0  0  0  0  0  0
  -15.6635   13.6783  -26.7638 N   0  0  0  0  0  0  0  0  0  0  0  0
  -15.2193   14.9138  -26.6783 C   0  0  0  0  0  0  0  0  0  0  0  0
  -14.0940   15.4296  -27.4327 C   0  0  0  0  0  0  0  0  0  0  0  0
  -13.3165   14.6471  -28.1544 C   0  0  0  0  0  0  0  0  0  0  0  0
  -13.4689   13.2217  -28.4123 C   0  0  0  0  0  0  0  0  0  0  0  0
  -14.3807   12.5076  -27.9387 O   0  0  0  0  0  0  0  0  0  0  0  0
  -12.4006   12.8161  -29.2816 N   0  0  0  0  0  0  0  0  0  0  0  0
  -11.5851   13.9391  -29.5745 C   0  0  0  0  0  0  0  0  0  0  0  0
  -10.4778   14.0517  -30.3395 N   0  0  0  0  0  0  0  0  0  0  0  0
   -9.8575   15.2334  -30.4798 C   0  0  0  0  0  0  0  0  0  0  0  0
  -10.3560   16.2949  -29.8481 N   0  0  0  0  0  0  0  0  0  0  0  0
  -11.4665   16.2287  -29.0683 C   0  0  0  0  0  0  0  0  0  0  0  0
  -11.9515   17.3879  -28.4207 N   0  0  0  0  0  0  0  0  0  0  0  0
  -11.2100   18.5893  -28.4955 C   0  0  0  0  0  0  0  0  0  0  0  0
  -11.7658   19.8016  -28.0544 C   0  0  0  0  0  0  0  0  0  0  0  0
  -11.0561   20.9756  -28.1174 C   0  0  0  0  0  0  0  0  0  0  0  0
   -9.7750   20.9515  -28.6255 C   0  0  0  0  0  0  0  0  0  0  0  0
   -9.0127   22.0601  -28.7208 F   0  0  0  0  0  0  0  0  0  0  0  0
   -9.2164   19.7559  -29.0647 C   0  0  0  0  0  0  0  0  0  0  0  0
   -7.5821   19.7448  -29.7092 Cl  0  0  0  0  0  0  0  0  0  0  0  0
   -9.9399   18.6005  -28.9925 C   0  0  0  0  0  0  0  0  0  0  0  0
  -12.1100   15.0415  -28.9140 C   0  0  0  0  0  0  0  0  0  0  0  0
  1  2  1  0
  2  3  1  0
  3  4  2  0
  4  5  1  0
  5  6  2  0
  7  5  1  0
  7  8  1  0
  8  9  1  0
  9 10  1  6
  9 11  1  0
 11 12  1  0
 12 13  1  1
 12 14  1  0
  4 15  1  0
 15 16  1  0
 16 17  1  0
 17 18  2  0
 18 19  1  0
 19 20  2  0
 19 21  1  0
 21 22  1  0
 22 23  2  0
 23 24  1  0
 24 25  2  0
 25 26  1  0
 26 27  1  0
 27 28  1  0
 28 29  2  0
 29 30  1  0
 30 31  2  0
 31 32  1  0
 31 33  1  0
 33 34  1  0
 33 35  2  0
 26 36  2  0
 16  2  2  0
 36 18  1  0
 14  7  1  0
 36 22  1  0
 35 28  1  0
M  CHG  1   7   1
M  END
$$$$
CHEMBL69071_diffdock_9
     RDKit          3D

 36 40  0  0  0  0  0  0  0  0999 V2000
  -15.5652   17.1370  -25.3537 C   0  0  0  0  0  0  0  0  0  0  0  0
  -15.6797   15.6612  -25.5367 C   0  0  0  0  0  0  0  0  0  0  0  0
  -16.5624   14.8822  -24.8784 C   0  0  0  0  0  0  0  0  0  0  0  0
  -16.3702   13.5485  -25.2580 C   0  0  0  0  0  0  0  0  0  0  0  0
  -17.0390   12.3345  -24.8423 C   0  0  0  0  0  0  0  0  0  0  0  0
  -16.7195   11.3227  -25.4833 O   0  0  0  0  0  0  0  0  0  0  0  0
  -17.9189   11.7276  -24.0196 N   0  0  0  0  0  4  0  0  0  0  0  0
  -19.3513   11.6733  -24.5810 C   0  0  0  0  0  0  0  0  0  0  0  0
  -20.2790   11.2389  -23.5143 C   0  0  1  0  0  0  0  0  0  0  0  0
  -21.6892   11.4174  -24.0498 C   0  0  0  0  0  0  0  0  0  0  0  0
  -20.0859    9.8103  -23.3314 N   0  0  0  0  0  0  0  0  0  0  0  0
  -18.7192    9.6183  -22.9914 C   0  0  2  0  0  0  0  0  0  0  0  0
  -18.4092    9.9565  -21.5704 C   0  0  0  0  0  0  0  0  0  0  0  0
  -17.7361   10.3244  -23.9298 C   0  0  0  0  0  0  0  0  0  0  0  0
  -15.3594   13.6011  -26.1444 N   0  0  0  0  0  0  0  0  0  0  0  0
  -14.9477   14.8390  -26.3151 C   0  0  0  0  0  0  0  0  0  0  0  0
  -13.8944   15.2288  -27.2317 C   0  0  0  0  0  0  0  0  0  0  0  0
  -13.1607   14.3417  -27.8740 C   0  0  0  0  0  0  0  0  0  0  0  0
  -13.4015   12.9124  -28.0169 C   0  0  0  0  0  0  0  0  0  0  0  0
  -14.3627   12.2989  -27.5017 O   0  0  0  0  0  0  0  0  0  0  0  0
  -12.3517   12.3697  -28.8322 N   0  0  0  0  0  0  0  0  0  0  0  0
  -11.4624   13.4108  -29.2024 C   0  0  0  0  0  0  0  0  0  0  0  0
  -10.3415   13.3897  -29.9554 N   0  0  0  0  0  0  0  0  0  0  0  0
   -9.6449   14.5142  -30.1816 C   0  0  0  0  0  0  0  0  0  0  0  0
  -10.0813   15.6535  -29.6472 N   0  0  0  0  0  0  0  0  0  0  0  0
  -11.2026   15.7223  -28.8832 C   0  0  0  0  0  0  0  0  0  0  0  0
  -11.6194   16.9594  -28.3407 N   0  0  0  0  0  0  0  0  0  0  0  0
  -11.0366   18.1582  -28.8120 C   0  0  0  0  0  0  0  0  0  0  0  0
  -10.7699   19.2188  -27.9303 C   0  0  0  0  0  0  0  0  0  0  0  0
  -10.2007   20.3875  -28.3729 C   0  0  0  0  0  0  0  0  0  0  0  0
   -9.8900   20.5109  -29.7101 C   0  0  0  0  0  0  0  0  0  0  0  0
   -9.3293   21.6249  -30.2236 F   0  0  0  0  0  0  0  0  0  0  0  0
  -10.1505   19.4662  -30.5905 C   0  0  0  0  0  0  0  0  0  0  0  0
   -9.7475   19.6416  -32.2915 Cl  0  0  0  0  0  0  0  0  0  0  0  0
  -10.7166   18.3130  -30.1288 C   0  0  0  0  0  0  0  0  0  0  0  0
  -11.9228   14.5950  -28.6430 C   0  0  0  0  0  0  0  0  0  0  0  0
  1  2  1  0
  2  3  1  0
  3  4  2  0
  4  5  1  0
  5  6  2  0
  7  5  1  0
  7  8  1  0
  8  9  1  0
  9 10  1  6
  9 11  1  0
 11 12  1  0
 12 13  1  1
 12 14  1  0
  4 15  1  0
 15 16  1  0
 16 17  1  0
 17 18  2  0
 18 19  1  0
 19 20  2  0
 19 21  1  0
 21 22  1  0
 22 23  2  0
 23 24  1  0
 24 25  2  0
 25 26  1  0
 26 27  1  0
 27 28  1  0
 28 29  2  0
 29 30  1  0
 30 31  2  0
 31 32  1  0
 31 33  1  0
 33 34  1  0
 33 35  2  0
 26 36  2  0
 16  2  2  0
 36 18  1  0
 14  7  1  0
 36 22  1  0
 35 28  1  0
M  CHG  1   7   1
M  END
$$$$
CHEMBL69071_diffdock_10
     RDKit          3D

 36 40  0  0  0  0  0  0  0  0999 V2000
  -15.9162   17.4438  -25.0054 C   0  0  0  0  0  0  0  0  0  0  0  0
  -16.1083   16.0043  -25.3449 C   0  0  0  0  0  0  0  0  0  0  0  0
  -17.1378   15.2525  -24.9040 C   0  0  0  0  0  0  0  0  0  0  0  0
  -16.9865   13.9438  -25.3776 C   0  0  0  0  0  0  0  0  0  0  0  0
  -17.7991   12.7620  -25.1855 C   0  0  0  0  0  0  0  0  0  0  0  0
  -17.9663   12.0780  -26.2058 O   0  0  0  0  0  0  0  0  0  0  0  0
  -18.5225   11.9837  -24.3546 N   0  0  0  0  0  4  0  0  0  0  0  0
  -18.6925   10.5381  -24.8559 C   0  0  0  0  0  0  0  0  0  0  0  0
  -19.7051    9.8487  -24.0275 C   0  0  1  0  0  0  0  0  0  0  0  0
  -19.9961    8.5161  -24.6961 C   0  0  0  0  0  0  0  0  0  0  0  0
  -19.0811    9.5415  -22.7517 N   0  0  0  0  0  0  0  0  0  0  0  0
  -18.6534   10.7766  -22.1930 C   0  0  2  0  0  0  0  0  0  0  0  0
  -19.7645   11.5687  -21.5867 C   0  0  0  0  0  0  0  0  0  0  0  0
  -17.8438   11.6512  -23.1549 C   0  0  0  0  0  0  0  0  0  0  0  0
  -15.8483   13.9825  -26.0939 N   0  0  0  0  0  0  0  0  0  0  0  0
  -15.3255   15.1899  -26.0809 C   0  0  0  0  0  0  0  0  0  0  0  0
  -14.1160   15.5622  -26.7882 C   0  0  0  0  0  0  0  0  0  0  0  0
  -13.3631   14.6731  -27.4048 C   0  0  0  0  0  0  0  0  0  0  0  0
  -13.6083   13.2464  -27.5656 C   0  0  0  0  0  0  0  0  0  0  0  0
  -14.5942   12.6374  -27.0936 O   0  0  0  0  0  0  0  0  0  0  0  0
  -12.5299   12.7002  -28.3403 N   0  0  0  0  0  0  0  0  0  0  0  0
  -11.6186   13.7366  -28.6679 C   0  0  0  0  0  0  0  0  0  0  0  0
  -10.4680   13.7110  -29.3745 N   0  0  0  0  0  0  0  0  0  0  0  0
   -9.7546   14.8315  -29.5656 C   0  0  0  0  0  0  0  0  0  0  0  0
  -10.2042   15.9712  -29.0431 N   0  0  0  0  0  0  0  0  0  0  0  0
  -11.3553   16.0443  -28.3253 C   0  0  0  0  0  0  0  0  0  0  0  0
  -11.7849   17.2816  -27.7933 N   0  0  0  0  0  0  0  0  0  0  0  0
  -11.0965   18.4662  -28.1419 C   0  0  0  0  0  0  0  0  0  0  0  0
  -11.2564   19.6366  -27.3815 C   0  0  0  0  0  0  0  0  0  0  0  0
  -10.5912   20.7934  -27.7058 C   0  0  0  0  0  0  0  0  0  0  0  0
   -9.7540   20.7943  -28.8006 C   0  0  0  0  0  0  0  0  0  0  0  0
   -9.0652   21.8884  -29.1849 F   0  0  0  0  0  0  0  0  0  0  0  0
   -9.5895   19.6404  -29.5595 C   0  0  0  0  0  0  0  0  0  0  0  0
   -8.5180   19.6605  -30.9516 Cl  0  0  0  0  0  0  0  0  0  0  0  0
  -10.2603   18.5013  -29.2188 C   0  0  0  0  0  0  0  0  0  0  0  0
  -12.0929   14.9212  -28.1211 C   0  0  0  0  0  0  0  0  0  0  0  0
  1  2  1  0
  2  3  1  0
  3  4  2  0
  4  5  1  0
  5  6  2  0
  7  5  1  0
  7  8  1  0
  8  9  1  0
  9 10  1  6
  9 11  1  0
 11 12  1  0
 12 13  1  6
 12 14  1  0
  4 15  1  0
 15 16  1  0
 16 17  1  0
 17 18  2  0
 18 19  1  0
 19 20  2  0
 19 21  1  0
 21 22  1  0
 22 23  2  0
 23 24  1  0
 24 25  2  0
 25 26  1  0
 26 27  1  0
 27 28  1  0
 28 29  2  0
 29 30  1  0
 30 31  2  0
 31 32  1  0
 31 33  1  0
 33 34  1  0
 33 35  2  0
 26 36  2  0
 16  2  2  0
 36 18  1  0
 14  7  1  0
 36 22  1  0
 35 28  1  0
M  CHG  1   7   1
M  END
$$$$
CHEMBL3967836_diffdock_1
     RDKit          3D

 43 46  0  0  0  0  0  0  0  0999 V2000
  -12.3892   20.6365  -21.2611 C   0  0  0  0  0  0  0  0  0  0  0  0
  -13.4122   20.0404  -21.8222 C   0  0  0  0  0  0  0  0  0  0  0  0
  -13.2894   19.5056  -23.1605 C   0  0  0  0  0  0  0  0  0  0  0  0
  -12.8978   20.2362  -24.1117 O   0  0  0  0  0  0  0  0  0  0  0  0
  -13.5998   18.1340  -23.4805 N   0  0  0  0  0  0  0  0  0  0  0  0
  -13.9930   17.7917  -24.8032 C   0  0  0  0  0  0  0  0  0  0  0  0
  -15.3484   17.7314  -25.0747 C   0  0  0  0  0  0  0  0  0  0  0  0
  -15.7144   17.4033  -26.3534 C   0  0  0  0  0  0  0  0  0  0  0  0
  -14.7789   17.1436  -27.3345 C   0  0  0  0  0  0  0  0  0  0  0  0
  -13.4215   17.2104  -27.0427 C   0  0  0  0  0  0  0  0  0  0  0  0
  -12.5061   16.9382  -28.1066 N   0  0  0  0  0  0  0  0  0  0  0  0
  -12.3369   15.5958  -28.5462 C   0  0  0  0  0  0  0  0  0  0  0  0
  -13.1108   14.5860  -28.0897 N   0  0  0  0  0  0  0  0  0  0  0  0
  -12.9749   13.3072  -28.4687 C   0  0  0  0  0  0  0  0  0  0  0  0
  -13.7542   12.2411  -27.9969 N   0  0  0  0  0  0  0  0  0  0  0  0
  -14.9735   12.3404  -27.2728 C   0  0  0  0  0  0  0  0  0  0  0  0
  -15.2339   13.3614  -26.3876 C   0  0  0  0  0  0  0  0  0  0  0  0
  -16.4382   13.4326  -25.7115 C   0  0  0  0  0  0  0  0  0  0  0  0
  -17.4468   12.5112  -25.8657 C   0  0  0  0  0  0  0  0  0  0  0  0
  -18.6733   12.5912  -25.1793 N   0  0  0  0  0  4  0  0  0  0  0  0
  -18.6413   12.1100  -23.8142 C   0  0  1  0  0  0  0  0  0  0  0  0
  -19.9851   11.9077  -23.2276 C   0  0  0  0  0  0  0  0  0  0  0  0
  -19.6637   10.5197  -22.7596 N   0  0  2  0  0  4  0  0  0  0  0  0
  -19.3664   10.3491  -21.4382 C   0  0  0  0  0  0  0  0  0  0  0  0
  -20.2692   10.9542  -20.8989 O   0  0  0  0  0  0  0  0  0  0  0  0
  -18.4817    9.7829  -20.5478 O   0  0  0  0  0  0  0  0  0  0  0  0
  -18.2634    8.3868  -20.3677 C   0  0  0  0  0  0  0  0  0  0  0  0
  -16.8265    8.0029  -20.3182 C   0  0  0  0  0  0  0  0  0  0  0  0
  -18.9524    7.9824  -19.0575 C   0  0  0  0  0  0  0  0  0  0  0  0
  -19.0371    7.7118  -21.4873 C   0  0  0  0  0  0  0  0  0  0  0  0
  -18.6089   10.6356  -23.6220 C   0  0  0  0  0  0  0  0  0  0  0  0
  -17.1757   11.4732  -26.7681 C   0  0  0  0  0  0  0  0  0  0  0  0
  -15.9809   11.3952  -27.4447 C   0  0  0  0  0  0  0  0  0  0  0  0
  -15.6957   10.3742  -28.3428 O   0  0  0  0  0  0  0  0  0  0  0  0
  -16.7137    9.4603  -28.6924 C   0  0  0  0  0  0  0  0  0  0  0  0
  -11.9843   13.0614  -29.3709 N   0  0  0  0  0  0  0  0  0  0  0  0
  -11.1846   14.0106  -29.8627 C   0  0  0  0  0  0  0  0  0  0  0  0
  -11.3441   15.3305  -29.4537 C   0  0  0  0  0  0  0  0  0  0  0  0
  -10.4448   16.3455  -30.0177 C   0  0  0  0  0  0  0  0  0  0  0  0
   -9.9483   17.1700  -29.0286 F   0  0  0  0  0  0  0  0  0  0  0  0
  -11.1016   17.1499  -30.9294 F   0  0  0  0  0  0  0  0  0  0  0  0
   -9.3255   15.7670  -30.6314 F   0  0  0  0  0  0  0  0  0  0  0  0
  -13.0542   17.5346  -25.7737 C   0  0  0  0  0  0  0  0  0  0  0  0
  1  2  2  0
  2  3  1  0
  3  4  2  0
  3  5  1  0
  5  6  1  0
  6  7  2  0
  7  8  1  0
  8  9  2  0
  9 10  1  0
 10 11  1  0
 11 12  1  0
 12 13  2  0
 13 14  1  0
 14 15  1  0
 15 16  1  0
 16 17  2  0
 17 18  1  0
 18 19  2  0
 19 20  1  0
 21 20  1  6
 21 22  1  0
 22 23  1  0
 23 24  1  1
 24 25  2  0
 24 26  1  0
 26 27  1  0
 27 28  1  0
 27 29  1  0
 27 30  1  0
 23 31  1  0
 19 32  1  0
 32 33  2  0
 33 34  1  0
 34 35  1  0
 14 36  2  0
 36 37  1  0
 37 38  2  0
 38 39  1  0
 39 40  1  0
 39 41  1  0
 39 42  1  0
 10 43  2  0
 43  6  1  0
 38 12  1  0
 33 16  1  0
 31 21  1  0
M  CHG  2  20   1  23   1
M  END
$$$$
CHEMBL3967836_diffdock_2
     RDKit          3D

 43 46  0  0  0  0  0  0  0  0999 V2000
  -13.2410   23.1958  -23.8756 C   0  0  0  0  0  0  0  0  0  0  0  0
  -13.3657   21.9844  -23.3922 C   0  0  0  0  0  0  0  0  0  0  0  0
  -13.7327   20.8933  -24.2680 C   0  0  0  0  0  0  0  0  0  0  0  0
  -14.7224   20.9961  -25.0436 O   0  0  0  0  0  0  0  0  0  0  0  0
  -13.0038   19.6494  -24.3068 N   0  0  0  0  0  0  0  0  0  0  0  0
  -13.3473   18.6624  -25.2707 C   0  0  0  0  0  0  0  0  0  0  0  0
  -14.6346   18.1561  -25.2405 C   0  0  0  0  0  0  0  0  0  0  0  0
  -14.9541   17.2078  -26.1760 C   0  0  0  0  0  0  0  0  0  0  0  0
  -14.0385   16.7713  -27.1122 C   0  0  0  0  0  0  0  0  0  0  0  0
  -12.7501   17.2928  -27.1274 C   0  0  0  0  0  0  0  0  0  0  0  0
  -11.8543   16.8033  -28.1284 N   0  0  0  0  0  0  0  0  0  0  0  0
  -11.8045   15.4053  -28.3871 C   0  0  0  0  0  0  0  0  0  0  0  0
  -12.6451   14.5322  -27.7889 N   0  0  0  0  0  0  0  0  0  0  0  0
  -12.6218   13.2077  -27.9956 C   0  0  0  0  0  0  0  0  0  0  0  0
  -13.4720   12.2814  -27.3746 N   0  0  0  0  0  0  0  0  0  0  0  0
  -14.6073   12.5804  -26.5730 C   0  0  0  0  0  0  0  0  0  0  0  0
  -14.6913   13.7099  -25.7911 C   0  0  0  0  0  0  0  0  0  0  0  0
  -15.8186   13.9746  -25.0350 C   0  0  0  0  0  0  0  0  0  0  0  0
  -16.9185   13.1504  -25.0047 C   0  0  0  0  0  0  0  0  0  0  0  0
  -18.0661   13.4272  -24.2376 N   0  0  0  0  0  4  0  0  0  0  0  0
  -18.1893   12.6512  -23.0216 C   0  0  1  0  0  0  0  0  0  0  0  0
  -19.3364   13.0543  -22.1775 C   0  0  0  0  0  0  0  0  0  0  0  0
  -19.8390   11.6478  -22.0429 N   0  0  2  0  0  4  0  0  0  0  0  0
  -19.5715   10.9876  -20.8782 C   0  0  0  0  0  0  0  0  0  0  0  0
  -18.3592   10.9420  -20.8897 O   0  0  0  0  0  0  0  0  0  0  0  0
  -20.1287   10.3935  -19.7680 O   0  0  0  0  0  0  0  0  0  0  0  0
  -20.4905    9.0204  -19.6540 C   0  0  0  0  0  0  0  0  0  0  0  0
  -19.3891    8.0772  -19.9890 C   0  0  0  0  0  0  0  0  0  0  0  0
  -20.9490    8.7877  -18.2082 C   0  0  0  0  0  0  0  0  0  0  0  0
  -21.7219    8.8557  -20.5282 C   0  0  0  0  0  0  0  0  0  0  0  0
  -19.0022   11.4081  -23.0972 C   0  0  0  0  0  0  0  0  0  0  0  0
  -16.8271   12.0013  -25.8025 C   0  0  0  0  0  0  0  0  0  0  0  0
  -15.7098   11.7308  -26.5575 C   0  0  0  0  0  0  0  0  0  0  0  0
  -15.6025   10.5975  -27.3541 O   0  0  0  0  0  0  0  0  0  0  0  0
  -16.6689    9.6726  -27.3831 C   0  0  0  0  0  0  0  0  0  0  0  0
  -11.6772   12.7638  -28.8710 N   0  0  0  0  0  0  0  0  0  0  0  0
  -10.8165   13.5703  -29.4965 C   0  0  0  0  0  0  0  0  0  0  0  0
  -10.8593   14.9413  -29.2651 C   0  0  0  0  0  0  0  0  0  0  0  0
   -9.8960   15.7949  -29.9724 C   0  0  0  0  0  0  0  0  0  0  0  0
   -8.9671   15.0335  -30.6521 F   0  0  0  0  0  0  0  0  0  0  0  0
   -9.1989   16.6027  -29.0942 F   0  0  0  0  0  0  0  0  0  0  0  0
  -10.5195   16.5929  -30.9411 F   0  0  0  0  0  0  0  0  0  0  0  0
  -12.4287   18.2337  -26.1990 C   0  0  0  0  0  0  0  0  0  0  0  0
  1  2  2  0
  2  3  1  0
  3  4  2  0
  3  5  1  0
  5  6  1  0
  6  7  2  0
  7  8  1  0
  8  9  2  0
  9 10  1  0
 10 11  1  0
 11 12  1  0
 12 13  2  0
 13 14  1  0
 14 15  1  0
 15 16  1  0
 16 17  2  0
 17 18  1  0
 18 19  2  0
 19 20  1  0
 21 20  1  6
 21 22  1  0
 22 23  1  0
 23 24  1  1
 24 25  2  0
 24 26  1  0
 26 27  1  0
 27 28  1  0
 27 29  1  0
 27 30  1  0
 23 31  1  0
 19 32  1  0
 32 33  2  0
 33 34  1  0
 34 35  1  0
 14 36  2  0
 36 37  1  0
 37 38  2  0
 38 39  1  0
 39 40  1  0
 39 41  1  0
 39 42  1  0
 10 43  2  0
 43  6  1  0
 38 12  1  0
 33 16  1  0
 31 21  1  0
M  CHG  2  20   1  23   1
M  END
$$$$
CHEMBL3967836_diffdock_3
     RDKit          3D

 43 46  0  0  0  0  0  0  0  0999 V2000
  -14.8356   22.0588  -22.2334 C   0  0  0  0  0  0  0  0  0  0  0  0
  -14.5222   20.7866  -22.2232 C   0  0  0  0  0  0  0  0  0  0  0  0
  -14.7204   19.9860  -23.4114 C   0  0  0  0  0  0  0  0  0  0  0  0
  -15.6746   20.2305  -24.1998 O   0  0  0  0  0  0  0  0  0  0  0  0
  -13.8569   18.8845  -23.7590 N   0  0  0  0  0  0  0  0  0  0  0  0
  -14.0794   18.1703  -24.9680 C   0  0  0  0  0  0  0  0  0  0  0  0
  -15.3765   17.7846  -25.2563 C   0  0  0  0  0  0  0  0  0  0  0  0
  -15.5783   17.0996  -26.4254 C   0  0  0  0  0  0  0  0  0  0  0  0
  -14.5392   16.8036  -27.2845 C   0  0  0  0  0  0  0  0  0  0  0  0
  -13.2429   17.2007  -26.9780 C   0  0  0  0  0  0  0  0  0  0  0  0
  -12.2149   16.8695  -27.9147 N   0  0  0  0  0  0  0  0  0  0  0  0
  -11.8773   15.5022  -28.1154 C   0  0  0  0  0  0  0  0  0  0  0  0
  -12.6846   14.4951  -27.7143 N   0  0  0  0  0  0  0  0  0  0  0  0
  -12.3970   13.1953  -27.8729 C   0  0  0  0  0  0  0  0  0  0  0  0
  -13.2103   12.1339  -27.4504 N   0  0  0  0  0  0  0  0  0  0  0  0
  -14.4342   12.2391  -26.7349 C   0  0  0  0  0  0  0  0  0  0  0  0
  -14.8532   13.4083  -26.1421 C   0  0  0  0  0  0  0  0  0  0  0  0
  -16.0576   13.4762  -25.4660 C   0  0  0  0  0  0  0  0  0  0  0  0
  -16.9118   12.4070  -25.3351 C   0  0  0  0  0  0  0  0  0  0  0  0
  -18.1397   12.4828  -24.6506 N   0  0  0  0  0  4  0  0  0  0  0  0
  -18.0299   12.6148  -23.2130 C   0  0  1  0  0  0  0  0  0  0  0  0
  -19.1857   13.3008  -22.5930 C   0  0  0  0  0  0  0  0  0  0  0  0
  -19.3773   12.2273  -21.5636 N   0  0  2  0  0  4  0  0  0  0  0  0
  -18.9129   12.4680  -20.3026 C   0  0  0  0  0  0  0  0  0  0  0  0
  -18.0421   13.2871  -20.5091 O   0  0  0  0  0  0  0  0  0  0  0  0
  -19.0557   12.1485  -18.9708 O   0  0  0  0  0  0  0  0  0  0  0  0
  -19.3594   13.0660  -17.9242 C   0  0  0  0  0  0  0  0  0  0  0  0
  -18.8979   14.4559  -18.1886 C   0  0  0  0  0  0  0  0  0  0  0  0
  -20.8821   13.0538  -17.7341 C   0  0  0  0  0  0  0  0  0  0  0  0
  -18.7636   12.4537  -16.6681 C   0  0  0  0  0  0  0  0  0  0  0  0
  -18.5703   11.4985  -22.3924 C   0  0  0  0  0  0  0  0  0  0  0  0
  -16.4796   11.2186  -25.9403 C   0  0  0  0  0  0  0  0  0  0  0  0
  -15.2834   11.1427  -26.6147 C   0  0  0  0  0  0  0  0  0  0  0  0
  -14.8400    9.9737  -27.2209 O   0  0  0  0  0  0  0  0  0  0  0  0
  -15.6533    9.3505  -28.1922 C   0  0  0  0  0  0  0  0  0  0  0  0
  -11.2090   12.9240  -28.4817 N   0  0  0  0  0  0  0  0  0  0  0  0
  -10.3650   13.8690  -28.9027 C   0  0  0  0  0  0  0  0  0  0  0  0
  -10.6848   15.2112  -28.7261 C   0  0  0  0  0  0  0  0  0  0  0  0
   -9.7306   16.2206  -29.2029 C   0  0  0  0  0  0  0  0  0  0  0  0
   -8.5810   15.6262  -29.6823 F   0  0  0  0  0  0  0  0  0  0  0  0
   -9.3544   17.0782  -28.1866 F   0  0  0  0  0  0  0  0  0  0  0  0
  -10.2498   16.9659  -30.2702 F   0  0  0  0  0  0  0  0  0  0  0  0
  -13.0384   17.8800  -25.8173 C   0  0  0  0  0  0  0  0  0  0  0  0
  1  2  2  0
  2  3  1  0
  3  4  2  0
  3  5  1  0
  5  6  1  0
  6  7  2  0
  7  8  1  0
  8  9  2  0
  9 10  1  0
 10 11  1  0
 11 12  1  0
 12 13  2  0
 13 14  1  0
 14 15  1  0
 15 16  1  0
 16 17  2  0
 17 18  1  0
 18 19  2  0
 19 20  1  0
 21 20  1  6
 21 22  1  0
 22 23  1  0
 23 24  1  1
 24 25  2  0
 24 26  1  0
 26 27  1  0
 27 28  1  0
 27 29  1  0
 27 30  1  0
 23 31  1  0
 19 32  1  0
 32 33  2  0
 33 34  1  0
 34 35  1  0
 14 36  2  0
 36 37  1  0
 37 38  2  0
 38 39  1  0
 39 40  1  0
 39 41  1  0
 39 42  1  0
 10 43  2  0
 43  6  1  0
 38 12  1  0
 33 16  1  0
 31 21  1  0
M  CHG  2  20   1  23   1
M  END
$$$$
CHEMBL3967836_diffdock_4
     RDKit          3D

 43 46  0  0  0  0  0  0  0  0999 V2000
  -13.0741   23.2950  -24.1344 C   0  0  0  0  0  0  0  0  0  0  0  0
  -12.6263   22.0655  -24.2015 C   0  0  0  0  0  0  0  0  0  0  0  0
  -13.4162   21.0456  -24.8558 C   0  0  0  0  0  0  0  0  0  0  0  0
  -14.4138   21.3590  -25.5617 O   0  0  0  0  0  0  0  0  0  0  0  0
  -13.1161   19.6394  -24.7435 N   0  0  0  0  0  0  0  0  0  0  0  0
  -13.4887   18.7545  -25.7922 C   0  0  0  0  0  0  0  0  0  0  0  0
  -14.8255   18.4150  -25.9011 C   0  0  0  0  0  0  0  0  0  0  0  0
  -15.1721   17.5640  -26.9171 C   0  0  0  0  0  0  0  0  0  0  0  0
  -14.2356   17.0631  -27.7986 C   0  0  0  0  0  0  0  0  0  0  0  0
  -12.8972   17.4168  -27.6737 C   0  0  0  0  0  0  0  0  0  0  0  0
  -11.9808   16.8692  -28.6247 N   0  0  0  0  0  0  0  0  0  0  0  0
  -11.7167   15.4715  -28.6043 C   0  0  0  0  0  0  0  0  0  0  0  0
  -12.5821   14.5833  -28.0666 N   0  0  0  0  0  0  0  0  0  0  0  0
  -12.3646   13.2613  -28.0161 C   0  0  0  0  0  0  0  0  0  0  0  0
  -13.2392   12.3232  -27.4490 N   0  0  0  0  0  0  0  0  0  0  0  0
  -14.4815   12.5998  -26.8159 C   0  0  0  0  0  0  0  0  0  0  0  0
  -14.7558   13.8024  -26.2055 C   0  0  0  0  0  0  0  0  0  0  0  0
  -15.9819   14.0404  -25.6117 C   0  0  0  0  0  0  0  0  0  0  0  0
  -16.9999   13.1169  -25.5843 C   0  0  0  0  0  0  0  0  0  0  0  0
  -18.2485   13.3660  -24.9835 N   0  0  0  0  0  4  0  0  0  0  0  0
  -18.2034   13.5949  -23.5546 C   0  0  1  0  0  0  0  0  0  0  0  0
  -19.0545   14.7212  -23.1098 C   0  0  0  0  0  0  0  0  0  0  0  0
  -19.7150   13.9079  -22.0369 N   0  0  2  0  0  4  0  0  0  0  0  0
  -19.2887   14.0870  -20.7524 C   0  0  0  0  0  0  0  0  0  0  0  0
  -19.3825   12.9654  -20.2994 O   0  0  0  0  0  0  0  0  0  0  0  0
  -18.8221   15.0062  -19.8395 O   0  0  0  0  0  0  0  0  0  0  0  0
  -19.4447   15.3376  -18.6019 C   0  0  0  0  0  0  0  0  0  0  0  0
  -19.2388   14.3230  -17.5329 C   0  0  0  0  0  0  0  0  0  0  0  0
  -18.8727   16.6881  -18.1504 C   0  0  0  0  0  0  0  0  0  0  0  0
  -20.9058   15.5800  -18.9398 C   0  0  0  0  0  0  0  0  0  0  0  0
  -19.1864   12.8502  -22.7234 C   0  0  0  0  0  0  0  0  0  0  0  0
  -16.7148   11.8936  -26.2070 C   0  0  0  0  0  0  0  0  0  0  0  0
  -15.4982   11.6490  -26.7999 C   0  0  0  0  0  0  0  0  0  0  0  0
  -15.1988   10.4432  -27.4219 O   0  0  0  0  0  0  0  0  0  0  0  0
  -16.1941    9.4452  -27.5044 C   0  0  0  0  0  0  0  0  0  0  0  0
  -11.1873   12.8361  -28.5534 N   0  0  0  0  0  0  0  0  0  0  0  0
  -10.2885   13.6581  -29.1004 C   0  0  0  0  0  0  0  0  0  0  0  0
  -10.5360   15.0263  -29.1403 C   0  0  0  0  0  0  0  0  0  0  0  0
   -9.5230   15.8973  -29.7504 C   0  0  0  0  0  0  0  0  0  0  0  0
   -8.7472   15.1969  -30.6515 F   0  0  0  0  0  0  0  0  0  0  0  0
   -8.6703   16.4223  -28.7979 F   0  0  0  0  0  0  0  0  0  0  0  0
  -10.1052   16.9436  -30.4786 F   0  0  0  0  0  0  0  0  0  0  0  0
  -12.5489   18.2606  -26.6652 C   0  0  0  0  0  0  0  0  0  0  0  0
  1  2  2  0
  2  3  1  0
  3  4  2  0
  3  5  1  0
  5  6  1  0
  6  7  2  0
  7  8  1  0
  8  9  2  0
  9 10  1  0
 10 11  1  0
 11 12  1  0
 12 13  2  0
 13 14  1  0
 14 15  1  0
 15 16  1  0
 16 17  2  0
 17 18  1  0
 18 19  2  0
 19 20  1  0
 21 20  1  6
 21 22  1  0
 22 23  1  0
 23 24  1  1
 24 25  2  0
 24 26  1  0
 26 27  1  0
 27 28  1  0
 27 29  1  0
 27 30  1  0
 23 31  1  0
 19 32  1  0
 32 33  2  0
 33 34  1  0
 34 35  1  0
 14 36  2  0
 36 37  1  0
 37 38  2  0
 38 39  1  0
 39 40  1  0
 39 41  1  0
 39 42  1  0
 10 43  2  0
 43  6  1  0
 38 12  1  0
 33 16  1  0
 31 21  1  0
M  CHG  2  20   1  23   1
M  END
$$$$
CHEMBL3967836_diffdock_5
     RDKit          3D

 43 46  0  0  0  0  0  0  0  0999 V2000
  -15.7796   23.4658  -25.2715 C   0  0  0  0  0  0  0  0  0  0  0  0
  -15.6416   22.5831  -26.2299 C   0  0  0  0  0  0  0  0  0  0  0  0
  -14.8959   21.3676  -25.9882 C   0  0  0  0  0  0  0  0  0  0  0  0
  -14.3081   21.1818  -24.8874 O   0  0  0  0  0  0  0  0  0  0  0  0
  -14.7830   20.3172  -26.9699 N   0  0  0  0  0  0  0  0  0  0  0  0
  -13.8533   19.2608  -26.7664 C   0  0  0  0  0  0  0  0  0  0  0  0
  -13.7751   18.7096  -25.4998 C   0  0  0  0  0  0  0  0  0  0  0  0
  -12.8777   17.6908  -25.3172 C   0  0  0  0  0  0  0  0  0  0  0  0
  -12.0830   17.2275  -26.3463 C   0  0  0  0  0  0  0  0  0  0  0  0
  -12.1769   17.7933  -27.6125 C   0  0  0  0  0  0  0  0  0  0  0  0
  -11.3314   17.2609  -28.6350 N   0  0  0  0  0  0  0  0  0  0  0  0
  -11.1577   15.8517  -28.7238 C   0  0  0  0  0  0  0  0  0  0  0  0
  -11.9936   14.9835  -28.1119 N   0  0  0  0  0  0  0  0  0  0  0  0
  -11.8567   13.6507  -28.1603 C   0  0  0  0  0  0  0  0  0  0  0  0
  -12.7008   12.7315  -27.5207 N   0  0  0  0  0  0  0  0  0  0  0  0
  -13.8835   13.0340  -26.7923 C   0  0  0  0  0  0  0  0  0  0  0  0
  -14.1531   14.2891  -26.2964 C   0  0  0  0  0  0  0  0  0  0  0  0
  -15.3218   14.5493  -25.6044 C   0  0  0  0  0  0  0  0  0  0  0  0
  -16.2842   13.5979  -25.3623 C   0  0  0  0  0  0  0  0  0  0  0  0
  -17.4750   13.8691  -24.6621 N   0  0  0  0  0  4  0  0  0  0  0  0
  -17.3441   14.8248  -23.5824 C   0  0  1  0  0  0  0  0  0  0  0  0
  -18.5781   14.9823  -22.7803 C   0  0  0  0  0  0  0  0  0  0  0  0
  -17.8568   14.7919  -21.4794 N   0  0  2  0  0  4  0  0  0  0  0  0
  -17.5694   15.9062  -20.7448 C   0  0  0  0  0  0  0  0  0  0  0  0
  -17.7888   16.7943  -21.5417 O   0  0  0  0  0  0  0  0  0  0  0  0
  -17.1511   16.3672  -19.5166 O   0  0  0  0  0  0  0  0  0  0  0  0
  -15.9149   17.0241  -19.2529 C   0  0  0  0  0  0  0  0  0  0  0  0
  -14.7167   16.2345  -19.6472 C   0  0  0  0  0  0  0  0  0  0  0  0
  -15.9326   18.3543  -20.0179 C   0  0  0  0  0  0  0  0  0  0  0  0
  -15.9546   17.3763  -17.7757 C   0  0  0  0  0  0  0  0  0  0  0  0
  -16.8602   14.3017  -22.2770 C   0  0  0  0  0  0  0  0  0  0  0  0
  -16.0040   12.3212  -25.8692 C   0  0  0  0  0  0  0  0  0  0  0  0
  -14.8443   12.0542  -26.5586 C   0  0  0  0  0  0  0  0  0  0  0  0
  -14.5507   10.7955  -27.0685 O   0  0  0  0  0  0  0  0  0  0  0  0
  -15.4898    9.7529  -26.9116 C   0  0  0  0  0  0  0  0  0  0  0  0
  -10.7971   13.1923  -28.8833 N   0  0  0  0  0  0  0  0  0  0  0  0
   -9.9338   13.9932  -29.5125 C   0  0  0  0  0  0  0  0  0  0  0  0
  -10.0958   15.3732  -29.4470 C   0  0  0  0  0  0  0  0  0  0  0  0
   -9.1254   16.2202  -30.1525 C   0  0  0  0  0  0  0  0  0  0  0  0
   -8.5119   17.0985  -29.2827 F   0  0  0  0  0  0  0  0  0  0  0  0
   -9.7368   16.9767  -31.1341 F   0  0  0  0  0  0  0  0  0  0  0  0
   -8.0931   15.4647  -30.7250 F   0  0  0  0  0  0  0  0  0  0  0  0
  -13.0660   18.8062  -27.7973 C   0  0  0  0  0  0  0  0  0  0  0  0
  1  2  2  0
  2  3  1  0
  3  4  2  0
  3  5  1  0
  5  6  1  0
  6  7  2  0
  7  8  1  0
  8  9  2  0
  9 10  1  0
 10 11  1  0
 11 12  1  0
 12 13  2  0
 13 14  1  0
 14 15  1  0
 15 16  1  0
 16 17  2  0
 17 18  1  0
 18 19  2  0
 19 20  1  0
 21 20  1  6
 21 22  1  0
 22 23  1  0
 23 24  1  6
 24 25  2  0
 24 26  1  0
 26 27  1  0
 27 28  1  0
 27 29  1  0
 27 30  1  0
 23 31  1  0
 19 32  1  0
 32 33  2  0
 33 34  1  0
 34 35  1  0
 14 36  2  0
 36 37  1  0
 37 38  2  0
 38 39  1  0
 39 40  1  0
 39 41  1  0
 39 42  1  0
 10 43  2  0
 43  6  1  0
 38 12  1  0
 33 16  1  0
 31 21  1  0
M  CHG  2  20   1  23   1
M  END
$$$$
CHEMBL3967836_diffdock_6
     RDKit          3D

 43 46  0  0  0  0  0  0  0  0999 V2000
  -12.5817   18.7402  -20.7350 C   0  0  0  0  0  0  0  0  0  0  0  0
  -12.6448   19.1828  -21.9666 C   0  0  0  0  0  0  0  0  0  0  0  0
  -13.3688   18.4296  -22.9668 C   0  0  0  0  0  0  0  0  0  0  0  0
  -13.8963   17.3201  -22.6795 O   0  0  0  0  0  0  0  0  0  0  0  0
  -13.5285   18.8926  -24.3233 N   0  0  0  0  0  0  0  0  0  0  0  0
  -13.9277   17.9784  -25.3364 C   0  0  0  0  0  0  0  0  0  0  0  0
  -15.1310   17.3170  -25.1664 C   0  0  0  0  0  0  0  0  0  0  0  0
  -15.5059   16.4410  -26.1506 C   0  0  0  0  0  0  0  0  0  0  0  0
  -14.7241   16.2223  -27.2669 C   0  0  0  0  0  0  0  0  0  0  0  0
  -13.5187   16.8973  -27.4206 C   0  0  0  0  0  0  0  0  0  0  0  0
  -12.7619   16.6307  -28.6039 N   0  0  0  0  0  0  0  0  0  0  0  0
  -12.5299   15.2802  -28.9862 C   0  0  0  0  0  0  0  0  0  0  0  0
  -13.2394   14.2533  -28.4675 N   0  0  0  0  0  0  0  0  0  0  0  0
  -13.0428   12.9673  -28.7914 C   0  0  0  0  0  0  0  0  0  0  0  0
  -13.7544   11.8846  -28.2548 N   0  0  0  0  0  0  0  0  0  0  0  0
  -14.7216   11.9405  -27.2144 C   0  0  0  0  0  0  0  0  0  0  0  0
  -14.8865   13.0435  -26.4081 C   0  0  0  0  0  0  0  0  0  0  0  0
  -15.8483   13.0665  -25.4148 C   0  0  0  0  0  0  0  0  0  0  0  0
  -16.6958   12.0147  -25.1594 C   0  0  0  0  0  0  0  0  0  0  0  0
  -17.6773   12.0451  -24.1505 N   0  0  0  0  0  4  0  0  0  0  0  0
  -18.2364   13.3533  -23.8821 C   0  0  1  0  0  0  0  0  0  0  0  0
  -19.6523   13.3136  -23.4527 C   0  0  0  0  0  0  0  0  0  0  0  0
  -19.4009   14.1824  -22.2565 N   0  0  2  0  0  4  0  0  0  0  0  0
  -19.7538   15.4983  -22.3432 C   0  0  0  0  0  0  0  0  0  0  0  0
  -20.5821   15.4770  -23.2294 O   0  0  0  0  0  0  0  0  0  0  0  0
  -19.5342   16.7582  -21.8326 O   0  0  0  0  0  0  0  0  0  0  0  0
  -19.0277   17.8730  -22.5606 C   0  0  0  0  0  0  0  0  0  0  0  0
  -17.5437   17.8983  -22.6685 C   0  0  0  0  0  0  0  0  0  0  0  0
  -19.6475   17.8218  -23.9635 C   0  0  0  0  0  0  0  0  0  0  0  0
  -19.6108   19.0976  -21.8765 C   0  0  0  0  0  0  0  0  0  0  0  0
  -18.0905   13.8752  -22.4971 C   0  0  0  0  0  0  0  0  0  0  0  0
  -16.5230   10.8936  -25.9833 C   0  0  0  0  0  0  0  0  0  0  0  0
  -15.5690   10.8627  -26.9735 C   0  0  0  0  0  0  0  0  0  0  0  0
  -15.3845    9.7608  -27.7995 O   0  0  0  0  0  0  0  0  0  0  0  0
  -16.3400    8.7215  -27.7848 C   0  0  0  0  0  0  0  0  0  0  0  0
  -12.0587   12.7324  -29.7035 N   0  0  0  0  0  0  0  0  0  0  0  0
  -11.3208   13.6986  -30.2553 C   0  0  0  0  0  0  0  0  0  0  0  0
  -11.5426   15.0258  -29.9027 C   0  0  0  0  0  0  0  0  0  0  0  0
  -10.7103   16.0595  -30.5318 C   0  0  0  0  0  0  0  0  0  0  0  0
  -10.0932   16.8444  -29.5791 F   0  0  0  0  0  0  0  0  0  0  0  0
  -11.4659   16.8998  -31.3272 F   0  0  0  0  0  0  0  0  0  0  0  0
   -9.6766   15.5024  -31.2968 F   0  0  0  0  0  0  0  0  0  0  0  0
  -13.1424   17.7669  -26.4446 C   0  0  0  0  0  0  0  0  0  0  0  0
  1  2  2  0
  2  3  1  0
  3  4  2  0
  3  5  1  0
  5  6  1  0
  6  7  2  0
  7  8  1  0
  8  9  2  0
  9 10  1  0
 10 11  1  0
 11 12  1  0
 12 13  2  0
 13 14  1  0
 14 15  1  0
 15 16  1  0
 16 17  2  0
 17 18  1  0
 18 19  2  0
 19 20  1  0
 21 20  1  1
 21 22  1  0
 22 23  1  0
 23 24  1  6
 24 25  2  0
 24 26  1  0
 26 27  1  0
 27 28  1  0
 27 29  1  0
 27 30  1  0
 23 31  1  0
 19 32  1  0
 32 33  2  0
 33 34  1  0
 34 35  1  0
 14 36  2  0
 36 37  1  0
 37 38  2  0
 38 39  1  0
 39 40  1  0
 39 41  1  0
 39 42  1  0
 10 43  2  0
 43  6  1  0
 38 12  1  0
 33 16  1  0
 31 21  1  0
M  CHG  2  20   1  23   1
M  END
$$$$
CHEMBL3967836_diffdock_7
     RDKit          3D

 43 46  0  0  0  0  0  0  0  0999 V2000
  -13.4513   21.4637  -22.0141 C   0  0  0  0  0  0  0  0  0  0  0  0
  -12.8980   20.5728  -22.7996 C   0  0  0  0  0  0  0  0  0  0  0  0
  -13.7272   19.7509  -23.6535 C   0  0  0  0  0  0  0  0  0  0  0  0
  -14.5587   18.9422  -23.1572 O   0  0  0  0  0  0  0  0  0  0  0  0
  -13.6552   19.8065  -25.0928 N   0  0  0  0  0  0  0  0  0  0  0  0
  -13.9766   18.6524  -25.8585 C   0  0  0  0  0  0  0  0  0  0  0  0
  -15.1914   18.0371  -25.6132 C   0  0  0  0  0  0  0  0  0  0  0  0
  -15.4906   16.9279  -26.3593 C   0  0  0  0  0  0  0  0  0  0  0  0
  -14.6247   16.4390  -27.3165 C   0  0  0  0  0  0  0  0  0  0  0  0
  -13.4091   17.0717  -27.5494 C   0  0  0  0  0  0  0  0  0  0  0  0
  -12.5630   16.5187  -28.5605 N   0  0  0  0  0  0  0  0  0  0  0  0
  -12.1994   15.1456  -28.4822 C   0  0  0  0  0  0  0  0  0  0  0  0
  -12.9877   14.2252  -27.8836 N   0  0  0  0  0  0  0  0  0  0  0  0
  -12.6752   12.9257  -27.7776 C   0  0  0  0  0  0  0  0  0  0  0  0
  -13.4685   11.9563  -27.1472 N   0  0  0  0  0  0  0  0  0  0  0  0
  -14.7087   12.1764  -26.4881 C   0  0  0  0  0  0  0  0  0  0  0  0
  -14.9897   13.3313  -25.7943 C   0  0  0  0  0  0  0  0  0  0  0  0
  -16.2135   13.5157  -25.1773 C   0  0  0  0  0  0  0  0  0  0  0  0
  -17.2226   12.5825  -25.2068 C   0  0  0  0  0  0  0  0  0  0  0  0
  -18.4689   12.7773  -24.5817 N   0  0  0  0  0  4  0  0  0  0  0  0
  -18.4063   13.4001  -23.2762 C   0  0  1  0  0  0  0  0  0  0  0  0
  -19.4052   14.4758  -23.0865 C   0  0  0  0  0  0  0  0  0  0  0  0
  -19.8900   13.9106  -21.7848 N   0  0  2  0  0  4  0  0  0  0  0  0
  -19.4487   14.4989  -20.6346 C   0  0  0  0  0  0  0  0  0  0  0  0
  -18.3078   14.0918  -20.5676 O   0  0  0  0  0  0  0  0  0  0  0  0
  -19.7937   15.3281  -19.5908 O   0  0  0  0  0  0  0  0  0  0  0  0
  -18.9573   15.6687  -18.4891 C   0  0  0  0  0  0  0  0  0  0  0  0
  -17.6970   16.3571  -18.8794 C   0  0  0  0  0  0  0  0  0  0  0  0
  -19.7748   16.5746  -17.5585 C   0  0  0  0  0  0  0  0  0  0  0  0
  -18.7344   14.3678  -17.7370 C   0  0  0  0  0  0  0  0  0  0  0  0
  -19.2293   12.7877  -22.1994 C   0  0  0  0  0  0  0  0  0  0  0  0
  -16.9307   11.4080  -25.9143 C   0  0  0  0  0  0  0  0  0  0  0  0
  -15.7162   11.2168  -26.5309 C   0  0  0  0  0  0  0  0  0  0  0  0
  -15.4102   10.0598  -27.2367 O   0  0  0  0  0  0  0  0  0  0  0  0
  -16.1580    8.8870  -26.9939 C   0  0  0  0  0  0  0  0  0  0  0  0
  -11.4818   12.5595  -28.3229 N   0  0  0  0  0  0  0  0  0  0  0  0
  -10.6557   13.4158  -28.9285 C   0  0  0  0  0  0  0  0  0  0  0  0
  -11.0011   14.7598  -29.0254 C   0  0  0  0  0  0  0  0  0  0  0  0
  -10.0658   15.6700  -29.6990 C   0  0  0  0  0  0  0  0  0  0  0  0
   -8.9981   14.9762  -30.2310 F   0  0  0  0  0  0  0  0  0  0  0  0
   -9.5501   16.6034  -28.8201 F   0  0  0  0  0  0  0  0  0  0  0  0
  -10.6680   16.3317  -30.7776 F   0  0  0  0  0  0  0  0  0  0  0  0
  -13.1078   18.1727  -26.8095 C   0  0  0  0  0  0  0  0  0  0  0  0
  1  2  2  0
  2  3  1  0
  3  4  2  0
  3  5  1  0
  5  6  1  0
  6  7  2  0
  7  8  1  0
  8  9  2  0
  9 10  1  0
 10 11  1  0
 11 12  1  0
 12 13  2  0
 13 14  1  0
 14 15  1  0
 15 16  1  0
 16 17  2  0
 17 18  1  0
 18 19  2  0
 19 20  1  0
 21 20  1  6
 21 22  1  0
 22 23  1  0
 23 24  1  1
 24 25  2  0
 24 26  1  0
 26 27  1  0
 27 28  1  0
 27 29  1  0
 27 30  1  0
 23 31  1  0
 19 32  1  0
 32 33  2  0
 33 34  1  0
 34 35  1  0
 14 36  2  0
 36 37  1  0
 37 38  2  0
 38 39  1  0
 39 40  1  0
 39 41  1  0
 39 42  1  0
 10 43  2  0
 43  6  1  0
 38 12  1  0
 33 16  1  0
 31 21  1  0
M  CHG  2  20   1  23   1
M  END
$$$$
CHEMBL3967836_diffdock_8
     RDKit          3D

 43 46  0  0  0  0  0  0  0  0999 V2000
  -13.6559   20.4041  -21.2998 C   0  0  0  0  0  0  0  0  0  0  0  0
  -12.9943   20.1769  -22.4077 C   0  0  0  0  0  0  0  0  0  0  0  0
  -13.6099   19.4137  -23.4710 C   0  0  0  0  0  0  0  0  0  0  0  0
  -14.7227   19.7628  -23.9523 O   0  0  0  0  0  0  0  0  0  0  0  0
  -13.0009   18.2335  -24.0332 N   0  0  0  0  0  0  0  0  0  0  0  0
  -13.5207   17.6774  -25.2341 C   0  0  0  0  0  0  0  0  0  0  0  0
  -14.8733   17.3888  -25.2750 C   0  0  0  0  0  0  0  0  0  0  0  0
  -15.3625   16.8561  -26.4384 C   0  0  0  0  0  0  0  0  0  0  0  0
  -14.5492   16.6152  -27.5273 C   0  0  0  0  0  0  0  0  0  0  0  0
  -13.1928   16.9129  -27.4674 C   0  0  0  0  0  0  0  0  0  0  0  0
  -12.4090   16.6467  -28.6331 N   0  0  0  0  0  0  0  0  0  0  0  0
  -12.1630   15.2964  -29.0068 C   0  0  0  0  0  0  0  0  0  0  0  0
  -12.8540   14.2645  -28.4731 N   0  0  0  0  0  0  0  0  0  0  0  0
  -12.6437   12.9786  -28.7887 C   0  0  0  0  0  0  0  0  0  0  0  0
  -13.3359   11.8911  -28.2365 N   0  0  0  0  0  0  0  0  0  0  0  0
  -14.3158   11.9463  -27.2082 C   0  0  0  0  0  0  0  0  0  0  0  0
  -14.4252   13.0074  -26.3386 C   0  0  0  0  0  0  0  0  0  0  0  0
  -15.4010   13.0324  -25.3591 C   0  0  0  0  0  0  0  0  0  0  0  0
  -16.3174   12.0234  -25.1799 C   0  0  0  0  0  0  0  0  0  0  0  0
  -17.3126   12.0561  -24.1846 N   0  0  0  0  0  4  0  0  0  0  0  0
  -18.5541   12.6854  -24.5833 C   0  0  1  0  0  0  0  0  0  0  0  0
  -19.7587   11.9483  -24.1401 C   0  0  0  0  0  0  0  0  0  0  0  0
  -20.3906   13.1714  -23.5454 N   0  0  2  0  0  4  0  0  0  0  0  0
  -21.3736   13.7899  -24.2630 C   0  0  0  0  0  0  0  0  0  0  0  0
  -21.1955   13.3355  -25.3738 O   0  0  0  0  0  0  0  0  0  0  0  0
  -22.4233   14.6788  -24.1998 O   0  0  0  0  0  0  0  0  0  0  0  0
  -22.4575   15.9684  -24.8041 C   0  0  0  0  0  0  0  0  0  0  0  0
  -22.7122   15.9403  -26.2701 C   0  0  0  0  0  0  0  0  0  0  0  0
  -23.5606   16.7720  -24.1027 C   0  0  0  0  0  0  0  0  0  0  0  0
  -21.1403   16.6239  -24.4261 C   0  0  0  0  0  0  0  0  0  0  0  0
  -19.1293   13.6889  -23.6485 C   0  0  0  0  0  0  0  0  0  0  0  0
  -16.2010   10.9450  -26.0679 C   0  0  0  0  0  0  0  0  0  0  0  0
  -15.2336   10.9125  -27.0450 C   0  0  0  0  0  0  0  0  0  0  0  0
  -15.1042    9.8524  -27.9338 O   0  0  0  0  0  0  0  0  0  0  0  0
  -16.0632    8.8164  -27.9141 C   0  0  0  0  0  0  0  0  0  0  0  0
  -11.6654   12.7492  -29.7084 N   0  0  0  0  0  0  0  0  0  0  0  0
  -10.9456   13.7204  -30.2751 C   0  0  0  0  0  0  0  0  0  0  0  0
  -11.1813   15.0474  -29.9309 C   0  0  0  0  0  0  0  0  0  0  0  0
  -10.3687   16.0866  -30.5763 C   0  0  0  0  0  0  0  0  0  0  0  0
  -11.1259   16.8279  -31.4604 F   0  0  0  0  0  0  0  0  0  0  0  0
   -9.3240   15.5361  -31.2941 F   0  0  0  0  0  0  0  0  0  0  0  0
   -9.8599   17.0032  -29.6462 F   0  0  0  0  0  0  0  0  0  0  0  0
  -12.7030   17.4408  -26.3133 C   0  0  0  0  0  0  0  0  0  0  0  0
  1  2  2  0
  2  3  1  0
  3  4  2  0
  3  5  1  0
  5  6  1  0
  6  7  2  0
  7  8  1  0
  8  9  2  0
  9 10  1  0
 10 11  1  0
 11 12  1  0
 12 13  2  0
 13 14  1  0
 14 15  1  0
 15 16  1  0
 16 17  2  0
 17 18  1  0
 18 19  2  0
 19 20  1  0
 21 20  1  1
 21 22  1  0
 22 23  1  0
 23 24  1  6
 24 25  2  0
 24 26  1  0
 26 27  1  0
 27 28  1  0
 27 29  1  0
 27 30  1  0
 23 31  1  0
 19 32  1  0
 32 33  2  0
 33 34  1  0
 34 35  1  0
 14 36  2  0
 36 37  1  0
 37 38  2  0
 38 39  1  0
 39 40  1  0
 39 41  1  0
 39 42  1  0
 10 43  2  0
 43  6  1  0
 38 12  1  0
 33 16  1  0
 31 21  1  0
M  CHG  2  20   1  23   1
M  END
$$$$
CHEMBL3967836_diffdock_9
     RDKit          3D

 43 46  0  0  0  0  0  0  0  0999 V2000
  -14.9188   16.2832  -21.0635 C   0  0  0  0  0  0  0  0  0  0  0  0
  -15.7919   16.2653  -22.0402 C   0  0  0  0  0  0  0  0  0  0  0  0
  -15.5020   16.9538  -23.2788 C   0  0  0  0  0  0  0  0  0  0  0  0
  -15.8803   18.1442  -23.4566 O   0  0  0  0  0  0  0  0  0  0  0  0
  -14.7775   16.3342  -24.3609 N   0  0  0  0  0  0  0  0  0  0  0  0
  -14.3324   17.1265  -25.4543 C   0  0  0  0  0  0  0  0  0  0  0  0
  -14.4704   18.4993  -25.3505 C   0  0  0  0  0  0  0  0  0  0  0  0
  -14.0354   19.2517  -26.4094 C   0  0  0  0  0  0  0  0  0  0  0  0
  -13.4814   18.6743  -27.5340 C   0  0  0  0  0  0  0  0  0  0  0  0
  -13.3499   17.2931  -27.6192 C   0  0  0  0  0  0  0  0  0  0  0  0
  -12.7603   16.7608  -28.8079 N   0  0  0  0  0  0  0  0  0  0  0  0
  -12.3445   15.4004  -28.8235 C   0  0  0  0  0  0  0  0  0  0  0  0
  -13.0564   14.4232  -28.2192 N   0  0  0  0  0  0  0  0  0  0  0  0
  -12.6923   13.1330  -28.2000 C   0  0  0  0  0  0  0  0  0  0  0  0
  -13.4053   12.1052  -27.5662 N   0  0  0  0  0  0  0  0  0  0  0  0
  -14.4377   12.2623  -26.6016 C   0  0  0  0  0  0  0  0  0  0  0  0
  -14.6484   13.4391  -25.9199 C   0  0  0  0  0  0  0  0  0  0  0  0
  -15.6725   13.5588  -24.9983 C   0  0  0  0  0  0  0  0  0  0  0  0
  -16.5407   12.5364  -24.6968 C   0  0  0  0  0  0  0  0  0  0  0  0
  -17.5854   12.6651  -23.7618 N   0  0  0  0  0  4  0  0  0  0  0  0
  -18.8679   13.0298  -24.3259 C   0  0  1  0  0  0  0  0  0  0  0  0
  -20.0197   12.5926  -23.5055 C   0  0  0  0  0  0  0  0  0  0  0  0
  -20.6534   13.9517  -23.5207 N   0  0  2  0  0  4  0  0  0  0  0  0
  -21.6968   14.1551  -24.3773 C   0  0  0  0  0  0  0  0  0  0  0  0
  -21.6890   13.1313  -25.0282 O   0  0  0  0  0  0  0  0  0  0  0  0
  -22.6899   15.0320  -24.7527 O   0  0  0  0  0  0  0  0  0  0  0  0
  -22.8267   15.6316  -26.0377 C   0  0  0  0  0  0  0  0  0  0  0  0
  -23.7665   14.9135  -26.9408 C   0  0  0  0  0  0  0  0  0  0  0  0
  -23.3153   17.0700  -25.8204 C   0  0  0  0  0  0  0  0  0  0  0  0
  -21.4133   15.7348  -26.5849 C   0  0  0  0  0  0  0  0  0  0  0  0
  -19.4177   14.3574  -23.9423 C   0  0  0  0  0  0  0  0  0  0  0  0
  -16.3210   11.3400  -25.3936 C   0  0  0  0  0  0  0  0  0  0  0  0
  -15.3050   11.2127  -26.3118 C   0  0  0  0  0  0  0  0  0  0  0  0
  -15.0734   10.0351  -27.0119 O   0  0  0  0  0  0  0  0  0  0  0  0
  -15.9250    8.9291  -26.7999 C   0  0  0  0  0  0  0  0  0  0  0  0
  -11.5281   12.8390  -28.8432 N   0  0  0  0  0  0  0  0  0  0  0  0
  -10.7767   13.7540  -29.4602 C   0  0  0  0  0  0  0  0  0  0  0  0
  -11.1746   15.0869  -29.4658 C   0  0  0  0  0  0  0  0  0  0  0  0
  -10.3210   16.0630  -30.1553 C   0  0  0  0  0  0  0  0  0  0  0  0
   -9.8397   17.0087  -29.2729 F   0  0  0  0  0  0  0  0  0  0  0  0
  -11.0200   16.7385  -31.1376 F   0  0  0  0  0  0  0  0  0  0  0  0
   -9.1910   15.4587  -30.7227 F   0  0  0  0  0  0  0  0  0  0  0  0
  -13.7821   16.5425  -26.5703 C   0  0  0  0  0  0  0  0  0  0  0  0
  1  2  2  0
  2  3  1  0
  3  4  2  0
  3  5  1  0
  5  6  1  0
  6  7  2  0
  7  8  1  0
  8  9  2  0
  9 10  1  0
 10 11  1  0
 11 12  1  0
 12 13  2  0
 13 14  1  0
 14 15  1  0
 15 16  1  0
 16 17  2  0
 17 18  1  0
 18 19  2  0
 19 20  1  0
 21 20  1  1
 21 22  1  0
 22 23  1  0
 23 24  1  6
 24 25  2  0
 24 26  1  0
 26 27  1  0
 27 28  1  0
 27 29  1  0
 27 30  1  0
 23 31  1  0
 19 32  1  0
 32 33  2  0
 33 34  1  0
 34 35  1  0
 14 36  2  0
 36 37  1  0
 37 38  2  0
 38 39  1  0
 39 40  1  0
 39 41  1  0
 39 42  1  0
 10 43  2  0
 43  6  1  0
 38 12  1  0
 33 16  1  0
 31 21  1  0
M  CHG  2  20   1  23   1
M  END
$$$$
CHEMBL3967836_diffdock_10
     RDKit          3D

 43 46  0  0  0  0  0  0  0  0999 V2000
  -13.6008   18.3101  -20.2659 C   0  0  0  0  0  0  0  0  0  0  0  0
  -13.2365   18.7493  -21.4453 C   0  0  0  0  0  0  0  0  0  0  0  0
  -13.8986   18.2575  -22.6336 C   0  0  0  0  0  0  0  0  0  0  0  0
  -14.7704   17.3489  -22.5546 O   0  0  0  0  0  0  0  0  0  0  0  0
  -13.6085   18.7663  -23.9515 N   0  0  0  0  0  0  0  0  0  0  0  0
  -14.0457   18.0451  -25.0961 C   0  0  0  0  0  0  0  0  0  0  0  0
  -15.3584   17.6084  -25.1170 C   0  0  0  0  0  0  0  0  0  0  0  0
  -15.7682   16.9172  -26.2264 C   0  0  0  0  0  0  0  0  0  0  0  0
  -14.9160   16.6637  -27.2822 C   0  0  0  0  0  0  0  0  0  0  0  0
  -13.6008   17.1116  -27.2433 C   0  0  0  0  0  0  0  0  0  0  0  0
  -12.7740   16.8225  -28.3732 N   0  0  0  0  0  0  0  0  0  0  0  0
  -12.4915   15.4656  -28.6937 C   0  0  0  0  0  0  0  0  0  0  0  0
  -13.2622   14.4465  -28.2529 N   0  0  0  0  0  0  0  0  0  0  0  0
  -13.0226   13.1550  -28.5215 C   0  0  0  0  0  0  0  0  0  0  0  0
  -13.7977   12.0805  -28.0620 N   0  0  0  0  0  0  0  0  0  0  0  0
  -14.8433   12.1419  -27.1008 C   0  0  0  0  0  0  0  0  0  0  0  0
  -15.0015   13.2023  -26.2379 C   0  0  0  0  0  0  0  0  0  0  0  0
  -16.0399   13.2336  -25.3253 C   0  0  0  0  0  0  0  0  0  0  0  0
  -16.9745   12.2320  -25.2098 C   0  0  0  0  0  0  0  0  0  0  0  0
  -18.0334   12.2710  -24.2828 N   0  0  0  0  0  4  0  0  0  0  0  0
  -18.7940   13.5029  -24.2766 C   0  0  1  0  0  0  0  0  0  0  0  0
  -19.9767   13.4622  -23.3875 C   0  0  0  0  0  0  0  0  0  0  0  0
  -19.6161   14.7507  -22.7102 N   0  0  2  0  0  4  0  0  0  0  0  0
  -20.2878   15.8766  -23.0908 C   0  0  0  0  0  0  0  0  0  0  0  0
  -19.9532   15.9867  -24.2518 O   0  0  0  0  0  0  0  0  0  0  0  0
  -21.1475   16.8686  -22.6751 O   0  0  0  0  0  0  0  0  0  0  0  0
  -21.0320   18.2534  -22.9886 C   0  0  0  0  0  0  0  0  0  0  0  0
  -19.6647   18.6641  -23.4088 C   0  0  0  0  0  0  0  0  0  0  0  0
  -22.0307   18.5513  -24.1149 C   0  0  0  0  0  0  0  0  0  0  0  0
  -21.5385   18.9871  -21.7586 C   0  0  0  0  0  0  0  0  0  0  0  0
  -18.3937   14.5350  -23.2835 C   0  0  0  0  0  0  0  0  0  0  0  0
  -16.8082   11.1542  -26.0907 C   0  0  0  0  0  0  0  0  0  0  0  0
  -15.7783   11.1155  -27.0014 C   0  0  0  0  0  0  0  0  0  0  0  0
  -15.5989   10.0560  -27.8822 O   0  0  0  0  0  0  0  0  0  0  0  0
  -16.7307    9.4479  -28.4676 C   0  0  0  0  0  0  0  0  0  0  0  0
  -11.9258   12.9058  -29.2899 N   0  0  0  0  0  0  0  0  0  0  0  0
  -11.1225   13.8637  -29.7586 C   0  0  0  0  0  0  0  0  0  0  0  0
  -11.3909   15.1968  -29.4658 C   0  0  0  0  0  0  0  0  0  0  0  0
  -10.4838   16.2210  -29.9998 C   0  0  0  0  0  0  0  0  0  0  0  0
  -11.0587   16.8827  -31.0657 F   0  0  0  0  0  0  0  0  0  0  0  0
   -9.3041   15.6622  -30.4534 F   0  0  0  0  0  0  0  0  0  0  0  0
  -10.1936   17.2079  -29.0481 F   0  0  0  0  0  0  0  0  0  0  0  0
  -13.1897   17.7972  -26.1427 C   0  0  0  0  0  0  0  0  0  0  0  0
  1  2  2  0
  2  3  1  0
  3  4  2  0
  3  5  1  0
  5  6  1  0
  6  7  2  0
  7  8  1  0
  8  9  2  0
  9 10  1  0
 10 11  1  0
 11 12  1  0
 12 13  2  0
 13 14  1  0
 14 15  1  0
 15 16  1  0
 16 17  2  0
 17 18  1  0
 18 19  2  0
 19 20  1  0
 21 20  1  1
 21 22  1  0
 22 23  1  0
 23 24  1  6
 24 25  2  0
 24 26  1  0
 26 27  1  0
 27 28  1  0
 27 29  1  0
 27 30  1  0
 23 31  1  0
 19 32  1  0
 32 33  2  0
 33 34  1  0
 34 35  1  0
 14 36  2  0
 36 37  1  0
 37 38  2  0
 38 39  1  0
 39 40  1  0
 39 41  1  0
 39 42  1  0
 10 43  2  0
 43  6  1  0
 38 12  1  0
 33 16  1  0
 31 21  1  0
M  CHG  2  20   1  23   1
M  END
$$$$
CHEMBL4080720_diffdock_1
     RDKit          3D

 36 38  0  0  0  0  0  0  0  0999 V2000
  -15.3317   10.9840  -26.3992 C   0  0  0  0  0  0  0  0  0  0  0  0
  -15.1395   12.3615  -26.2274 O   0  0  0  0  0  0  0  0  0  0  0  0
  -14.1610   13.1045  -26.8345 C   0  0  0  0  0  0  0  0  0  0  0  0
  -13.0870   12.6087  -27.5217 C   0  0  0  0  0  0  0  0  0  0  0  0
  -12.1388   13.4310  -28.1093 C   0  0  0  0  0  0  0  0  0  0  0  0
  -11.0763   12.9469  -28.7813 N   0  0  0  0  0  0  0  0  0  0  0  0
  -10.1653   13.7465  -29.3413 C   0  0  0  0  0  0  0  0  0  0  0  0
  -10.3072   15.0825  -29.2347 N   0  0  0  0  0  0  0  0  0  0  0  0
  -11.3298   15.6472  -28.5868 C   0  0  0  0  0  0  0  0  0  0  0  0
  -11.4257   17.0648  -28.5464 N   0  0  0  0  0  0  0  0  0  0  0  0
  -10.6614   17.8366  -29.4739 C   0  0  0  0  0  0  0  0  0  0  0  0
  -10.3112   19.1162  -29.2090 C   0  0  0  0  0  0  0  0  0  0  0  0
   -9.5491   19.8646  -30.1168 C   0  0  0  0  0  0  0  0  0  0  0  0
   -9.1565   19.2807  -31.2890 C   0  0  0  0  0  0  0  0  0  0  0  0
   -8.4157   19.9779  -32.1932 F   0  0  0  0  0  0  0  0  0  0  0  0
   -9.5028   17.9620  -31.5877 C   0  0  0  0  0  0  0  0  0  0  0  0
   -8.9794   17.2571  -33.0997 Cl  0  0  0  0  0  0  0  0  0  0  0  0
  -10.2508   17.2758  -30.6629 C   0  0  0  0  0  0  0  0  0  0  0  0
  -12.2679   14.8002  -28.0090 C   0  0  0  0  0  0  0  0  0  0  0  0
  -13.3378   15.3192  -27.3235 C   0  0  0  0  0  0  0  0  0  0  0  0
  -14.2798   14.4966  -26.7379 C   0  0  0  0  0  0  0  0  0  0  0  0
  -15.3418   15.0212  -26.0523 O   0  0  0  0  0  0  0  0  0  0  0  0
  -15.1317   15.8361  -24.9270 C   0  0  0  0  0  0  0  0  0  0  0  0
  -16.4852   16.3073  -24.4655 C   0  0  0  0  0  0  0  0  0  0  0  0
  -16.3092   17.1144  -23.1880 C   0  0  0  0  0  0  0  0  0  0  0  0
  -15.6886   18.3079  -23.4789 O   0  0  0  0  0  0  0  0  0  0  0  0
  -15.8961   19.4932  -22.3058 P   0  0  2  0  0  5  0  0  0  0  0  0
  -16.1306   18.8763  -20.7078 N   0  0  0  0  0  0  0  0  0  0  0  0
  -17.0975   20.3779  -22.6862 O   0  0  0  0  0  0  0  0  0  0  0  0
  -14.4970   20.5697  -22.3919 N   0  0  0  0  0  4  0  0  0  0  0  0
  -14.8704   21.6762  -23.2239 C   0  0  0  0  0  0  0  0  0  0  0  0
  -14.1757   22.9634  -22.9558 C   0  0  0  0  0  0  0  0  0  0  0  0
  -15.3780   24.2321  -22.6307 Cl  0  0  0  0  0  0  0  0  0  0  0  0
  -13.3033   19.8780  -22.7990 C   0  0  0  0  0  0  0  0  0  0  0  0
  -12.5254   20.8273  -23.7235 C   0  0  0  0  0  0  0  0  0  0  0  0
  -13.3412   20.8830  -25.3219 Cl  0  0  0  0  0  0  0  0  0  0  0  0
  1  2  1  0
  2  3  1  0
  3  4  2  0
  4  5  1  0
  5  6  2  0
  6  7  1  0
  7  8  2  0
  8  9  1  0
  9 10  1  0
 10 11  1  0
 11 12  2  0
 12 13  1  0
 13 14  2  0
 14 15  1  0
 14 16  1  0
 16 17  1  0
 16 18  2  0
  9 19  2  0
 19 20  1  0
 20 21  2  0
 21 22  1  0
 22 23  1  0
 23 24  1  0
 24 25  1  0
 25 26  1  0
 26 27  1  0
 27 28  1  1
 27 29  2  0
 27 30  1  0
 30 31  1  0
 31 32  1  0
 32 33  1  0
 30 34  1  0
 34 35  1  0
 35 36  1  0
 21  3  1  0
 19  5  1  0
 18 11  1  0
M  CHG  1  30   1
M  END
$$$$
CHEMBL4080720_diffdock_2
     RDKit          3D

 36 38  0  0  0  0  0  0  0  0999 V2000
  -15.4365   11.3543  -26.3002 C   0  0  0  0  0  0  0  0  0  0  0  0
  -15.2822   12.7188  -26.5797 O   0  0  0  0  0  0  0  0  0  0  0  0
  -14.2034   13.2785  -27.2134 C   0  0  0  0  0  0  0  0  0  0  0  0
  -13.2739   12.6071  -27.9595 C   0  0  0  0  0  0  0  0  0  0  0  0
  -12.2088   13.2497  -28.5704 C   0  0  0  0  0  0  0  0  0  0  0  0
  -11.2877   12.5916  -29.3006 N   0  0  0  0  0  0  0  0  0  0  0  0
  -10.2624   13.2182  -29.8828 C   0  0  0  0  0  0  0  0  0  0  0  0
  -10.1389   14.5527  -29.7394 N   0  0  0  0  0  0  0  0  0  0  0  0
  -11.0063   15.2829  -29.0332 C   0  0  0  0  0  0  0  0  0  0  0  0
  -10.8246   16.6905  -28.9562 N   0  0  0  0  0  0  0  0  0  0  0  0
   -9.9595   17.3290  -29.8965 C   0  0  0  0  0  0  0  0  0  0  0  0
   -9.0945   18.2974  -29.5169 C   0  0  0  0  0  0  0  0  0  0  0  0
   -8.2379   18.9108  -30.4415 C   0  0  0  0  0  0  0  0  0  0  0  0
   -8.2847   18.5150  -31.7493 C   0  0  0  0  0  0  0  0  0  0  0  0
   -7.4673   19.0891  -32.6738 F   0  0  0  0  0  0  0  0  0  0  0  0
   -9.1666   17.5177  -32.1685 C   0  0  0  0  0  0  0  0  0  0  0  0
   -9.1924   17.0448  -33.8515 Cl  0  0  0  0  0  0  0  0  0  0  0  0
   -9.9833   16.9515  -31.2208 C   0  0  0  0  0  0  0  0  0  0  0  0
  -12.0667   14.6144  -28.4331 C   0  0  0  0  0  0  0  0  0  0  0  0
  -12.9877   15.3078  -27.6883 C   0  0  0  0  0  0  0  0  0  0  0  0
  -14.0469   14.6638  -27.0797 C   0  0  0  0  0  0  0  0  0  0  0  0
  -14.9592   15.3611  -26.3350 O   0  0  0  0  0  0  0  0  0  0  0  0
  -14.5555   16.0611  -25.1855 C   0  0  0  0  0  0  0  0  0  0  0  0
  -15.6727   17.0057  -24.8299 C   0  0  0  0  0  0  0  0  0  0  0  0
  -15.2681   17.7930  -23.5926 C   0  0  0  0  0  0  0  0  0  0  0  0
  -16.3287   17.8534  -22.7176 O   0  0  0  0  0  0  0  0  0  0  0  0
  -15.8806   18.0130  -21.1058 P   0  0  2  0  0  5  0  0  0  0  0  0
  -14.3309   18.7421  -20.8692 N   0  0  0  0  0  0  0  0  0  0  0  0
  -15.8930   16.6263  -20.4366 O   0  0  0  0  0  0  0  0  0  0  0  0
  -17.1605   18.9193  -20.2909 N   0  0  0  0  0  4  0  0  0  0  0  0
  -16.7536   19.0835  -18.9258 C   0  0  0  0  0  0  0  0  0  0  0  0
  -16.9232   20.4436  -18.3489 C   0  0  0  0  0  0  0  0  0  0  0  0
  -17.7265   20.3234  -16.7675 Cl  0  0  0  0  0  0  0  0  0  0  0  0
  -18.4537   18.3158  -20.4719 C   0  0  0  0  0  0  0  0  0  0  0  0
  -19.3111   19.3160  -21.2627 C   0  0  0  0  0  0  0  0  0  0  0  0
  -20.8785   18.5429  -21.6739 Cl  0  0  0  0  0  0  0  0  0  0  0  0
  1  2  1  0
  2  3  1  0
  3  4  2  0
  4  5  1  0
  5  6  2  0
  6  7  1  0
  7  8  2  0
  8  9  1  0
  9 10  1  0
 10 11  1  0
 11 12  2  0
 12 13  1  0
 13 14  2  0
 14 15  1  0
 14 16  1  0
 16 17  1  0
 16 18  2  0
  9 19  2  0
 19 20  1  0
 20 21  2  0
 21 22  1  0
 22 23  1  0
 23 24  1  0
 24 25  1  0
 25 26  1  0
 26 27  1  0
 27 28  1  6
 27 29  2  0
 27 30  1  0
 30 31  1  0
 31 32  1  0
 32 33  1  0
 30 34  1  0
 34 35  1  0
 35 36  1  0
 21  3  1  0
 19  5  1  0
 18 11  1  0
M  CHG  1  30   1
M  END
$$$$
CHEMBL4080720_diffdock_3
     RDKit          3D

 36 38  0  0  0  0  0  0  0  0999 V2000
  -15.9037   11.2243  -26.4764 C   0  0  0  0  0  0  0  0  0  0  0  0
  -15.5468   12.5776  -26.4047 O   0  0  0  0  0  0  0  0  0  0  0  0
  -14.5563   13.1735  -27.1410 C   0  0  0  0  0  0  0  0  0  0  0  0
  -13.6837   12.5341  -27.9783 C   0  0  0  0  0  0  0  0  0  0  0  0
  -12.7073   13.2124  -28.6903 C   0  0  0  0  0  0  0  0  0  0  0  0
  -11.8419   12.5859  -29.5109 N   0  0  0  0  0  0  0  0  0  0  0  0
  -10.9016   13.2469  -30.1905 C   0  0  0  0  0  0  0  0  0  0  0  0
  -10.8097   14.5849  -30.0557 N   0  0  0  0  0  0  0  0  0  0  0  0
  -11.6265   15.2853  -29.2641 C   0  0  0  0  0  0  0  0  0  0  0  0
  -11.4857   16.6982  -29.2010 N   0  0  0  0  0  0  0  0  0  0  0  0
  -10.6716   17.3566  -30.1726 C   0  0  0  0  0  0  0  0  0  0  0  0
  -10.8042   17.1028  -31.4948 C   0  0  0  0  0  0  0  0  0  0  0  0
  -10.0121   17.7622  -32.4450 C   0  0  0  0  0  0  0  0  0  0  0  0
   -9.0916   18.6780  -32.0170 C   0  0  0  0  0  0  0  0  0  0  0  0
   -8.3058   19.3367  -32.9120 F   0  0  0  0  0  0  0  0  0  0  0  0
   -8.9343   18.9600  -30.6592 C   0  0  0  0  0  0  0  0  0  0  0  0
   -7.7433   20.1380  -30.1582 Cl  0  0  0  0  0  0  0  0  0  0  0  0
   -9.7359   18.2845  -29.7722 C   0  0  0  0  0  0  0  0  0  0  0  0
  -12.5984   14.5812  -28.5634 C   0  0  0  0  0  0  0  0  0  0  0  0
  -13.4634   15.2429  -27.7282 C   0  0  0  0  0  0  0  0  0  0  0  0
  -14.4342   14.5633  -27.0191 C   0  0  0  0  0  0  0  0  0  0  0  0
  -15.2906   15.2293  -26.1848 O   0  0  0  0  0  0  0  0  0  0  0  0
  -14.8088   16.2163  -25.3083 C   0  0  0  0  0  0  0  0  0  0  0  0
  -15.1868   17.5499  -25.8959 C   0  0  0  0  0  0  0  0  0  0  0  0
  -15.3493   18.5519  -24.7627 C   0  0  0  0  0  0  0  0  0  0  0  0
  -15.5680   17.8801  -23.5816 O   0  0  0  0  0  0  0  0  0  0  0  0
  -15.8959   18.8820  -22.2727 P   0  0  2  0  0  5  0  0  0  0  0  0
  -14.8684   18.6231  -20.9065 N   0  0  0  0  0  0  0  0  0  0  0  0
  -17.3625   18.6920  -21.8440 O   0  0  0  0  0  0  0  0  0  0  0  0
  -15.8065   20.5497  -22.8509 N   0  0  0  0  0  4  0  0  0  0  0  0
  -16.9231   21.2494  -22.2857 C   0  0  0  0  0  0  0  0  0  0  0  0
  -16.6276   22.1269  -21.1220 C   0  0  0  0  0  0  0  0  0  0  0  0
  -15.6946   21.2172  -19.9125 Cl  0  0  0  0  0  0  0  0  0  0  0  0
  -15.7044   20.6234  -24.2839 C   0  0  0  0  0  0  0  0  0  0  0  0
  -15.9242   22.0926  -24.6764 C   0  0  0  0  0  0  0  0  0  0  0  0
  -14.8795   23.1325  -23.6515 Cl  0  0  0  0  0  0  0  0  0  0  0  0
  1  2  1  0
  2  3  1  0
  3  4  2  0
  4  5  1  0
  5  6  2  0
  6  7  1  0
  7  8  2  0
  8  9  1  0
  9 10  1  0
 10 11  1  0
 11 12  2  0
 12 13  1  0
 13 14  2  0
 14 15  1  0
 14 16  1  0
 16 17  1  0
 16 18  2  0
  9 19  2  0
 19 20  1  0
 20 21  2  0
 21 22  1  0
 22 23  1  0
 23 24  1  0
 24 25  1  0
 25 26  1  0
 26 27  1  0
 27 28  1  1
 27 29  2  0
 27 30  1  0
 30 31  1  0
 31 32  1  0
 32 33  1  0
 30 34  1  0
 34 35  1  0
 35 36  1  0
 21  3  1  0
 19  5  1  0
 18 11  1  0
M  CHG  1  30   1
M  END
$$$$
CHEMBL4080720_diffdock_4
     RDKit          3D

 36 38  0  0  0  0  0  0  0  0999 V2000
  -15.5503   11.3781  -25.9569 C   0  0  0  0  0  0  0  0  0  0  0  0
  -15.3207   12.7589  -26.0250 O   0  0  0  0  0  0  0  0  0  0  0  0
  -14.2928   13.3562  -26.7068 C   0  0  0  0  0  0  0  0  0  0  0  0
  -13.3293   12.7109  -27.4326 C   0  0  0  0  0  0  0  0  0  0  0  0
  -12.3205   13.3912  -28.0959 C   0  0  0  0  0  0  0  0  0  0  0  0
  -11.3660   12.7593  -28.8063 N   0  0  0  0  0  0  0  0  0  0  0  0
  -10.3954   13.4225  -29.4394 C   0  0  0  0  0  0  0  0  0  0  0  0
  -10.3633   14.7681  -29.3696 N   0  0  0  0  0  0  0  0  0  0  0  0
  -11.2695   15.4742  -28.6880 C   0  0  0  0  0  0  0  0  0  0  0  0
  -11.1854   16.8930  -28.6895 N   0  0  0  0  0  0  0  0  0  0  0  0
  -10.3328   17.5347  -29.6390 C   0  0  0  0  0  0  0  0  0  0  0  0
   -9.5675   18.5966  -29.2974 C   0  0  0  0  0  0  0  0  0  0  0  0
   -8.7219   19.2138  -30.2297 C   0  0  0  0  0  0  0  0  0  0  0  0
   -8.6765   18.7249  -31.5057 C   0  0  0  0  0  0  0  0  0  0  0  0
   -7.8668   19.2996  -32.4366 F   0  0  0  0  0  0  0  0  0  0  0  0
   -9.4545   17.6300  -31.8852 C   0  0  0  0  0  0  0  0  0  0  0  0
   -9.3647   17.0400  -33.5286 Cl  0  0  0  0  0  0  0  0  0  0  0  0
  -10.2652   17.0648  -30.9318 C   0  0  0  0  0  0  0  0  0  0  0  0
  -12.2720   14.7679  -28.0342 C   0  0  0  0  0  0  0  0  0  0  0  0
  -13.2286   15.4356  -27.3111 C   0  0  0  0  0  0  0  0  0  0  0  0
  -14.2315   14.7542  -26.6501 C   0  0  0  0  0  0  0  0  0  0  0  0
  -15.1795   15.4265  -25.9275 O   0  0  0  0  0  0  0  0  0  0  0  0
  -15.1383   16.8274  -25.8261 C   0  0  0  0  0  0  0  0  0  0  0  0
  -16.3748   17.2517  -25.0792 C   0  0  0  0  0  0  0  0  0  0  0  0
  -16.0269   17.3953  -23.6052 C   0  0  0  0  0  0  0  0  0  0  0  0
  -15.2525   18.5182  -23.4219 O   0  0  0  0  0  0  0  0  0  0  0  0
  -14.8961   18.8512  -21.8136 P   0  0  2  0  0  5  0  0  0  0  0  0
  -13.2163   19.1133  -21.4990 N   0  0  0  0  0  0  0  0  0  0  0  0
  -15.3994   17.6929  -20.9327 O   0  0  0  0  0  0  0  0  0  0  0  0
  -15.8755   20.2420  -21.3343 N   0  0  0  0  0  4  0  0  0  0  0  0
  -15.7133   20.4007  -19.9185 C   0  0  0  0  0  0  0  0  0  0  0  0
  -16.7423   19.7524  -19.0628 C   0  0  0  0  0  0  0  0  0  0  0  0
  -16.4151   20.1223  -17.3549 Cl  0  0  0  0  0  0  0  0  0  0  0  0
  -17.2379   20.1273  -21.7815 C   0  0  0  0  0  0  0  0  0  0  0  0
  -17.4082   21.0968  -22.9613 C   0  0  0  0  0  0  0  0  0  0  0  0
  -17.4920   22.7752  -22.3295 Cl  0  0  0  0  0  0  0  0  0  0  0  0
  1  2  1  0
  2  3  1  0
  3  4  2  0
  4  5  1  0
  5  6  2  0
  6  7  1  0
  7  8  2  0
  8  9  1  0
  9 10  1  0
 10 11  1  0
 11 12  2  0
 12 13  1  0
 13 14  2  0
 14 15  1  0
 14 16  1  0
 16 17  1  0
 16 18  2  0
  9 19  2  0
 19 20  1  0
 20 21  2  0
 21 22  1  0
 22 23  1  0
 23 24  1  0
 24 25  1  0
 25 26  1  0
 26 27  1  0
 27 28  1  6
 27 29  2  0
 27 30  1  0
 30 31  1  0
 31 32  1  0
 32 33  1  0
 30 34  1  0
 34 35  1  0
 35 36  1  0
 21  3  1  0
 19  5  1  0
 18 11  1  0
M  CHG  1  30   1
M  END
$$$$
CHEMBL4080720_diffdock_5
     RDKit          3D

 36 38  0  0  0  0  0  0  0  0999 V2000
  -15.4953   10.4775  -26.6519 C   0  0  0  0  0  0  0  0  0  0  0  0
  -15.1597   11.8133  -26.3932 O   0  0  0  0  0  0  0  0  0  0  0  0
  -14.2308   12.5434  -27.0879 C   0  0  0  0  0  0  0  0  0  0  0  0
  -13.4539   12.0833  -28.1156 C   0  0  0  0  0  0  0  0  0  0  0  0
  -12.5352   12.8893  -28.7689 C   0  0  0  0  0  0  0  0  0  0  0  0
  -11.7636   12.4385  -29.7771 N   0  0  0  0  0  0  0  0  0  0  0  0
  -10.8781   13.2211  -30.3987 C   0  0  0  0  0  0  0  0  0  0  0  0
  -10.7468   14.5050  -30.0099 N   0  0  0  0  0  0  0  0  0  0  0  0
  -11.4712   15.0338  -29.0200 C   0  0  0  0  0  0  0  0  0  0  0  0
  -11.2965   16.4055  -28.6909 N   0  0  0  0  0  0  0  0  0  0  0  0
  -10.4637   17.2158  -29.5217 C   0  0  0  0  0  0  0  0  0  0  0  0
   -9.7038   18.2092  -29.0063 C   0  0  0  0  0  0  0  0  0  0  0  0
   -8.8777   18.9922  -29.8244 C   0  0  0  0  0  0  0  0  0  0  0  0
   -8.8460   18.7385  -31.1675 C   0  0  0  0  0  0  0  0  0  0  0  0
   -8.0553   19.4791  -31.9913 F   0  0  0  0  0  0  0  0  0  0  0  0
   -9.6189   17.7192  -31.7259 C   0  0  0  0  0  0  0  0  0  0  0  0
   -9.5471   17.4318  -33.4491 Cl  0  0  0  0  0  0  0  0  0  0  0  0
  -10.4103   16.9839  -30.8782 C   0  0  0  0  0  0  0  0  0  0  0  0
  -12.3871   14.2049  -28.3833 C   0  0  0  0  0  0  0  0  0  0  0  0
  -13.1562   14.6872  -27.3539 C   0  0  0  0  0  0  0  0  0  0  0  0
  -14.0696   13.8806  -26.7043 C   0  0  0  0  0  0  0  0  0  0  0  0
  -14.8302   14.3672  -25.6758 O   0  0  0  0  0  0  0  0  0  0  0  0
  -15.5051   15.5928  -25.8059 C   0  0  0  0  0  0  0  0  0  0  0  0
  -16.1680   15.8733  -24.4835 C   0  0  0  0  0  0  0  0  0  0  0  0
  -16.8155   17.2485  -24.5464 C   0  0  0  0  0  0  0  0  0  0  0  0
  -15.8407   18.2191  -24.5045 O   0  0  0  0  0  0  0  0  0  0  0  0
  -15.8364   19.1270  -23.0902 P   0  0  2  0  0  5  0  0  0  0  0  0
  -14.2685   19.3537  -22.3977 N   0  0  0  0  0  0  0  0  0  0  0  0
  -16.7533   18.4534  -22.0528 O   0  0  0  0  0  0  0  0  0  0  0  0
  -16.6201   20.6691  -23.4523 N   0  0  0  0  0  4  0  0  0  0  0  0
  -15.5886   21.6645  -23.4905 C   0  0  0  0  0  0  0  0  0  0  0  0
  -15.3304   22.2922  -24.8136 C   0  0  0  0  0  0  0  0  0  0  0  0
  -15.0303   21.0259  -26.0248 Cl  0  0  0  0  0  0  0  0  0  0  0  0
  -17.7054   20.9520  -22.5515 C   0  0  0  0  0  0  0  0  0  0  0  0
  -18.9802   21.0619  -23.4021 C   0  0  0  0  0  0  0  0  0  0  0  0
  -18.7627   20.1042  -24.9051 Cl  0  0  0  0  0  0  0  0  0  0  0  0
  1  2  1  0
  2  3  1  0
  3  4  2  0
  4  5  1  0
  5  6  2  0
  6  7  1  0
  7  8  2  0
  8  9  1  0
  9 10  1  0
 10 11  1  0
 11 12  2  0
 12 13  1  0
 13 14  2  0
 14 15  1  0
 14 16  1  0
 16 17  1  0
 16 18  2  0
  9 19  2  0
 19 20  1  0
 20 21  2  0
 21 22  1  0
 22 23  1  0
 23 24  1  0
 24 25  1  0
 25 26  1  0
 26 27  1  0
 27 28  1  1
 27 29  2  0
 27 30  1  0
 30 31  1  0
 31 32  1  0
 32 33  1  0
 30 34  1  0
 34 35  1  0
 35 36  1  0
 21  3  1  0
 19  5  1  0
 18 11  1  0
M  CHG  1  30   1
M  END
$$$$
CHEMBL4080720_diffdock_6
     RDKit          3D

 36 38  0  0  0  0  0  0  0  0999 V2000
  -15.6963   10.8577  -26.7736 C   0  0  0  0  0  0  0  0  0  0  0  0
  -15.4600   12.2337  -26.6525 O   0  0  0  0  0  0  0  0  0  0  0  0
  -14.4145   12.9093  -27.2261 C   0  0  0  0  0  0  0  0  0  0  0  0
  -13.4241   12.3556  -27.9903 C   0  0  0  0  0  0  0  0  0  0  0  0
  -12.3988   13.1113  -28.5365 C   0  0  0  0  0  0  0  0  0  0  0  0
  -11.4180   12.5691  -29.2842 N   0  0  0  0  0  0  0  0  0  0  0  0
  -10.4318   13.3042  -29.8036 C   0  0  0  0  0  0  0  0  0  0  0  0
  -10.4106   14.6326  -29.5764 N   0  0  0  0  0  0  0  0  0  0  0  0
  -11.3427   15.2519  -28.8470 C   0  0  0  0  0  0  0  0  0  0  0  0
  -11.2677   16.6614  -28.6803 N   0  0  0  0  0  0  0  0  0  0  0  0
  -10.4067   17.4146  -29.5357 C   0  0  0  0  0  0  0  0  0  0  0  0
   -9.6441   18.4250  -29.0588 C   0  0  0  0  0  0  0  0  0  0  0  0
   -8.7904   19.1517  -29.9003 C   0  0  0  0  0  0  0  0  0  0  0  0
   -8.7341   18.8245  -31.2266 C   0  0  0  0  0  0  0  0  0  0  0  0
   -7.9163   19.5089  -32.0722 F   0  0  0  0  0  0  0  0  0  0  0  0
   -9.5091   17.7860  -31.7453 C   0  0  0  0  0  0  0  0  0  0  0  0
   -9.4052   17.4038  -33.4483 Cl  0  0  0  0  0  0  0  0  0  0  0  0
  -10.3281   17.1082  -30.8761 C   0  0  0  0  0  0  0  0  0  0  0  0
  -12.3611   14.4715  -28.3131 C   0  0  0  0  0  0  0  0  0  0  0  0
  -13.3447   15.0478  -27.5487 C   0  0  0  0  0  0  0  0  0  0  0  0
  -14.3639   14.2912  -27.0048 C   0  0  0  0  0  0  0  0  0  0  0  0
  -15.3390   14.8721  -26.2401 O   0  0  0  0  0  0  0  0  0  0  0  0
  -15.0065   15.5506  -25.0553 C   0  0  0  0  0  0  0  0  0  0  0  0
  -16.1635   16.4564  -24.7269 C   0  0  0  0  0  0  0  0  0  0  0  0
  -15.6169   17.8239  -24.3451 C   0  0  0  0  0  0  0  0  0  0  0  0
  -16.6581   18.6589  -24.0093 O   0  0  0  0  0  0  0  0  0  0  0  0
  -16.1994   19.9976  -23.1027 P   0  0  2  0  0  5  0  0  0  0  0  0
  -17.4507   21.1711  -22.8877 N   0  0  0  0  0  0  0  0  0  0  0  0
  -14.9862   20.6705  -23.7707 O   0  0  0  0  0  0  0  0  0  0  0  0
  -15.5898   19.4012  -21.5547 N   0  0  0  0  0  4  0  0  0  0  0  0
  -15.6355   20.5003  -20.6350 C   0  0  0  0  0  0  0  0  0  0  0  0
  -15.8013   20.1490  -19.1995 C   0  0  0  0  0  0  0  0  0  0  0  0
  -17.5243   20.2138  -18.7662 Cl  0  0  0  0  0  0  0  0  0  0  0  0
  -14.3041   18.7691  -21.6840 C   0  0  0  0  0  0  0  0  0  0  0  0
  -13.2466   19.8823  -21.6258 C   0  0  0  0  0  0  0  0  0  0  0  0
  -11.6792   19.2287  -22.2083 Cl  0  0  0  0  0  0  0  0  0  0  0  0
  1  2  1  0
  2  3  1  0
  3  4  2  0
  4  5  1  0
  5  6  2  0
  6  7  1  0
  7  8  2  0
  8  9  1  0
  9 10  1  0
 10 11  1  0
 11 12  2  0
 12 13  1  0
 13 14  2  0
 14 15  1  0
 14 16  1  0
 16 17  1  0
 16 18  2  0
  9 19  2  0
 19 20  1  0
 20 21  2  0
 21 22  1  0
 22 23  1  0
 23 24  1  0
 24 25  1  0
 25 26  1  0
 26 27  1  0
 27 28  1  1
 27 29  2  0
 27 30  1  0
 30 31  1  0
 31 32  1  0
 32 33  1  0
 30 34  1  0
 34 35  1  0
 35 36  1  0
 21  3  1  0
 19  5  1  0
 18 11  1  0
M  CHG  1  30   1
M  END
$$$$
CHEMBL4080720_diffdock_7
     RDKit          3D

 36 38  0  0  0  0  0  0  0  0999 V2000
  -15.5151   11.5034  -26.6205 C   0  0  0  0  0  0  0  0  0  0  0  0
  -15.3048   12.8857  -26.5255 O   0  0  0  0  0  0  0  0  0  0  0  0
  -14.3020   13.5773  -27.1536 C   0  0  0  0  0  0  0  0  0  0  0  0
  -13.3610   13.0431  -27.9905 C   0  0  0  0  0  0  0  0  0  0  0  0
  -12.3770   13.8142  -28.5885 C   0  0  0  0  0  0  0  0  0  0  0  0
  -11.4446   13.2911  -29.4081 N   0  0  0  0  0  0  0  0  0  0  0  0
  -10.4977   14.0410  -29.9773 C   0  0  0  0  0  0  0  0  0  0  0  0
  -10.4678   15.3653  -29.7279 N   0  0  0  0  0  0  0  0  0  0  0  0
  -11.3533   15.9661  -28.9283 C   0  0  0  0  0  0  0  0  0  0  0  0
  -11.2740   17.3729  -28.7414 N   0  0  0  0  0  0  0  0  0  0  0  0
  -10.5452   18.1567  -29.6873 C   0  0  0  0  0  0  0  0  0  0  0  0
   -9.8392   19.2464  -29.3077 C   0  0  0  0  0  0  0  0  0  0  0  0
   -9.1143   20.0038  -30.2381 C   0  0  0  0  0  0  0  0  0  0  0  0
   -9.1270   19.6252  -31.5518 C   0  0  0  0  0  0  0  0  0  0  0  0
   -8.4345   20.3375  -32.4821 F   0  0  0  0  0  0  0  0  0  0  0  0
   -9.8460   18.5048  -31.9711 C   0  0  0  0  0  0  0  0  0  0  0  0
   -9.8342   18.0590  -33.6617 Cl  0  0  0  0  0  0  0  0  0  0  0  0
  -10.5386   17.8000  -31.0175 C   0  0  0  0  0  0  0  0  0  0  0  0
  -12.3311   15.1705  -28.3435 C   0  0  0  0  0  0  0  0  0  0  0  0
  -13.2654   15.7274  -27.5064 C   0  0  0  0  0  0  0  0  0  0  0  0
  -14.2435   14.9554  -26.9111 C   0  0  0  0  0  0  0  0  0  0  0  0
  -15.1694   15.5169  -26.0741 O   0  0  0  0  0  0  0  0  0  0  0  0
  -15.1412   16.8951  -25.8015 C   0  0  0  0  0  0  0  0  0  0  0  0
  -16.3879   17.2154  -25.0205 C   0  0  0  0  0  0  0  0  0  0  0  0
  -16.1820   16.7817  -23.5770 C   0  0  0  0  0  0  0  0  0  0  0  0
  -16.4002   17.8514  -22.7389 O   0  0  0  0  0  0  0  0  0  0  0  0
  -16.2308   17.4901  -21.1064 P   0  0  2  0  0  5  0  0  0  0  0  0
  -14.7001   16.8044  -20.6868 N   0  0  0  0  0  0  0  0  0  0  0  0
  -17.3503   16.5216  -20.6828 O   0  0  0  0  0  0  0  0  0  0  0  0
  -16.5516   18.9746  -20.2026 N   0  0  0  0  0  4  0  0  0  0  0  0
  -17.4330   19.7714  -21.0052 C   0  0  0  0  0  0  0  0  0  0  0  0
  -17.7637   21.1211  -20.4755 C   0  0  0  0  0  0  0  0  0  0  0  0
  -19.0669   20.9859  -19.2738 Cl  0  0  0  0  0  0  0  0  0  0  0  0
  -15.3406   19.6333  -19.7918 C   0  0  0  0  0  0  0  0  0  0  0  0
  -15.7526   20.8451  -18.9418 C   0  0  0  0  0  0  0  0  0  0  0  0
  -14.2750   21.7233  -18.4233 Cl  0  0  0  0  0  0  0  0  0  0  0  0
  1  2  1  0
  2  3  1  0
  3  4  2  0
  4  5  1  0
  5  6  2  0
  6  7  1  0
  7  8  2  0
  8  9  1  0
  9 10  1  0
 10 11  1  0
 11 12  2  0
 12 13  1  0
 13 14  2  0
 14 15  1  0
 14 16  1  0
 16 17  1  0
 16 18  2  0
  9 19  2  0
 19 20  1  0
 20 21  2  0
 21 22  1  0
 22 23  1  0
 23 24  1  0
 24 25  1  0
 25 26  1  0
 26 27  1  0
 27 28  1  6
 27 29  2  0
 27 30  1  0
 30 31  1  0
 31 32  1  0
 32 33  1  0
 30 34  1  0
 34 35  1  0
 35 36  1  0
 21  3  1  0
 19  5  1  0
 18 11  1  0
M  CHG  1  30   1
M  END
$$$$
CHEMBL4080720_diffdock_8
     RDKit          3D

 36 38  0  0  0  0  0  0  0  0999 V2000
   -9.2121   16.3986  -31.4557 C   0  0  0  0  0  0  0  0  0  0  0  0
  -10.0247   16.7546  -30.3709 O   0  0  0  0  0  0  0  0  0  0  0  0
  -11.0230   15.9779  -29.8430 C   0  0  0  0  0  0  0  0  0  0  0  0
  -11.2290   14.6505  -30.1023 C   0  0  0  0  0  0  0  0  0  0  0  0
  -12.2653   13.9343  -29.5249 C   0  0  0  0  0  0  0  0  0  0  0  0
  -12.4756   12.6289  -29.7825 N   0  0  0  0  0  0  0  0  0  0  0  0
  -13.4791   11.9472  -29.2244 C   0  0  0  0  0  0  0  0  0  0  0  0
  -14.3125   12.5797  -28.3747 N   0  0  0  0  0  0  0  0  0  0  0  0
  -14.1769   13.8716  -28.0634 C   0  0  0  0  0  0  0  0  0  0  0  0
  -15.0781   14.4578  -27.1336 N   0  0  0  0  0  0  0  0  0  0  0  0
  -16.1432   13.6644  -26.6079 C   0  0  0  0  0  0  0  0  0  0  0  0
  -17.2891   14.2270  -26.1603 C   0  0  0  0  0  0  0  0  0  0  0  0
  -18.3368   13.4425  -25.6583 C   0  0  0  0  0  0  0  0  0  0  0  0
  -18.1879   12.0838  -25.6256 C   0  0  0  0  0  0  0  0  0  0  0  0
  -19.1848   11.2916  -25.1448 F   0  0  0  0  0  0  0  0  0  0  0  0
  -17.0168   11.4768  -26.0818 C   0  0  0  0  0  0  0  0  0  0  0  0
  -16.8706    9.7356  -26.0196 Cl  0  0  0  0  0  0  0  0  0  0  0  0
  -16.0228   12.2932  -26.5625 C   0  0  0  0  0  0  0  0  0  0  0  0
  -13.1281   14.5660  -28.6541 C   0  0  0  0  0  0  0  0  0  0  0  0
  -12.9400   15.8977  -28.3802 C   0  0  0  0  0  0  0  0  0  0  0  0
  -11.9071   16.6085  -28.9588 C   0  0  0  0  0  0  0  0  0  0  0  0
  -11.7282   17.9373  -28.6841 O   0  0  0  0  0  0  0  0  0  0  0  0
  -12.6319   18.6218  -27.8539 C   0  0  0  0  0  0  0  0  0  0  0  0
  -12.3563   20.0925  -28.0208 C   0  0  0  0  0  0  0  0  0  0  0  0
  -11.7745   20.6285  -26.7214 C   0  0  0  0  0  0  0  0  0  0  0  0
  -12.7838   20.8032  -25.8021 O   0  0  0  0  0  0  0  0  0  0  0  0
  -12.2856   21.5124  -24.3622 P   0  0  2  0  0  5  0  0  0  0  0  0
  -10.6830   21.0820  -23.8768 N   0  0  0  0  0  0  0  0  0  0  0  0
  -13.2712   21.1316  -23.2423 O   0  0  0  0  0  0  0  0  0  0  0  0
  -12.4651   23.2609  -24.5470 N   0  0  0  0  0  4  0  0  0  0  0  0
  -11.8527   23.8682  -23.4015 C   0  0  0  0  0  0  0  0  0  0  0  0
  -12.6132   23.7809  -22.1265 C   0  0  0  0  0  0  0  0  0  0  0  0
  -11.7339   24.6494  -20.8485 Cl  0  0  0  0  0  0  0  0  0  0  0  0
  -13.8312   23.6452  -24.7820 C   0  0  0  0  0  0  0  0  0  0  0  0
  -13.8084   25.0839  -25.3209 C   0  0  0  0  0  0  0  0  0  0  0  0
  -13.3804   25.0469  -27.0641 Cl  0  0  0  0  0  0  0  0  0  0  0  0
  1  2  1  0
  2  3  1  0
  3  4  2  0
  4  5  1  0
  5  6  2  0
  6  7  1  0
  7  8  2  0
  8  9  1  0
  9 10  1  0
 10 11  1  0
 11 12  2  0
 12 13  1  0
 13 14  2  0
 14 15  1  0
 14 16  1  0
 16 17  1  0
 16 18  2  0
  9 19  2  0
 19 20  1  0
 20 21  2  0
 21 22  1  0
 22 23  1  0
 23 24  1  0
 24 25  1  0
 25 26  1  0
 26 27  1  0
 27 28  1  1
 27 29  2  0
 27 30  1  0
 30 31  1  0
 31 32  1  0
 32 33  1  0
 30 34  1  0
 34 35  1  0
 35 36  1  0
 21  3  1  0
 19  5  1  0
 18 11  1  0
M  CHG  1  30   1
M  END
$$$$
CHEMBL4080720_diffdock_9
     RDKit          3D

 36 38  0  0  0  0  0  0  0  0999 V2000
  -15.6206   10.9036  -26.7769 C   0  0  0  0  0  0  0  0  0  0  0  0
  -15.4151   12.2878  -26.7005 O   0  0  0  0  0  0  0  0  0  0  0  0
  -14.4264   12.9770  -27.3531 C   0  0  0  0  0  0  0  0  0  0  0  0
  -13.5523   12.4540  -28.2664 C   0  0  0  0  0  0  0  0  0  0  0  0
  -12.5780   13.2218  -28.8842 C   0  0  0  0  0  0  0  0  0  0  0  0
  -11.7112   12.7094  -29.7792 N   0  0  0  0  0  0  0  0  0  0  0  0
  -10.7729   13.4557  -30.3671 C   0  0  0  0  0  0  0  0  0  0  0  0
  -10.6845   14.7650  -30.0598 N   0  0  0  0  0  0  0  0  0  0  0  0
  -11.5029   15.3544  -29.1839 C   0  0  0  0  0  0  0  0  0  0  0  0
  -11.3658   16.7476  -28.9378 N   0  0  0  0  0  0  0  0  0  0  0  0
  -10.4355   17.4999  -29.7181 C   0  0  0  0  0  0  0  0  0  0  0  0
   -9.6441   18.4435  -29.1585 C   0  0  0  0  0  0  0  0  0  0  0  0
   -8.7229   19.1691  -29.9266 C   0  0  0  0  0  0  0  0  0  0  0  0
   -8.6297   18.9099  -31.2658 C   0  0  0  0  0  0  0  0  0  0  0  0
   -7.7462   19.5954  -32.0416 F   0  0  0  0  0  0  0  0  0  0  0  0
   -9.4333   17.9412  -31.8691 C   0  0  0  0  0  0  0  0  0  0  0  0
   -9.2804   17.6446  -33.5854 Cl  0  0  0  0  0  0  0  0  0  0  0  0
  -10.3186   17.2611  -31.0694 C   0  0  0  0  0  0  0  0  0  0  0  0
  -12.4727   14.5628  -28.5806 C   0  0  0  0  0  0  0  0  0  0  0  0
  -13.3392   15.1081  -27.6665 C   0  0  0  0  0  0  0  0  0  0  0  0
  -14.3079   14.3395  -27.0517 C   0  0  0  0  0  0  0  0  0  0  0  0
  -15.1659   14.8892  -26.1380 O   0  0  0  0  0  0  0  0  0  0  0  0
  -15.0836   16.2539  -25.8137 C   0  0  0  0  0  0  0  0  0  0  0  0
  -15.7765   16.4345  -24.4893 C   0  0  0  0  0  0  0  0  0  0  0  0
  -16.7042   17.6364  -24.5860 C   0  0  0  0  0  0  0  0  0  0  0  0
  -17.4855   17.7076  -23.4553 O   0  0  0  0  0  0  0  0  0  0  0  0
  -18.2769   19.1772  -23.2592 P   0  0  2  0  0  5  0  0  0  0  0  0
  -18.1496   20.2382  -24.6183 N   0  0  0  0  0  0  0  0  0  0  0  0
  -17.7234   19.8883  -22.0107 O   0  0  0  0  0  0  0  0  0  0  0  0
  -19.9622   18.8190  -22.8654 N   0  0  0  0  0  4  0  0  0  0  0  0
  -20.3563   19.7372  -21.8369 C   0  0  0  0  0  0  0  0  0  0  0  0
  -20.9621   21.0157  -22.2948 C   0  0  0  0  0  0  0  0  0  0  0  0
  -20.9998   22.1732  -20.9458 Cl  0  0  0  0  0  0  0  0  0  0  0  0
  -20.1634   17.4299  -22.5506 C   0  0  0  0  0  0  0  0  0  0  0  0
  -21.6166   17.0907  -22.9167 C   0  0  0  0  0  0  0  0  0  0  0  0
  -22.6640   18.4887  -22.5017 Cl  0  0  0  0  0  0  0  0  0  0  0  0
  1  2  1  0
  2  3  1  0
  3  4  2  0
  4  5  1  0
  5  6  2  0
  6  7  1  0
  7  8  2  0
  8  9  1  0
  9 10  1  0
 10 11  1  0
 11 12  2  0
 12 13  1  0
 13 14  2  0
 14 15  1  0
 14 16  1  0
 16 17  1  0
 16 18  2  0
  9 19  2  0
 19 20  1  0
 20 21  2  0
 21 22  1  0
 22 23  1  0
 23 24  1  0
 24 25  1  0
 25 26  1  0
 26 27  1  0
 27 28  1  6
 27 29  2  0
 27 30  1  0
 30 31  1  0
 31 32  1  0
 32 33  1  0
 30 34  1  0
 34 35  1  0
 35 36  1  0
 21  3  1  0
 19  5  1  0
 18 11  1  0
M  CHG  1  30   1
M  END
$$$$
CHEMBL4080720_diffdock_10
     RDKit          3D

 36 38  0  0  0  0  0  0  0  0999 V2000
  -16.2792   11.6573  -27.1659 C   0  0  0  0  0  0  0  0  0  0  0  0
  -15.7884   12.9103  -26.7747 O   0  0  0  0  0  0  0  0  0  0  0  0
  -14.8002   13.6081  -27.4189 C   0  0  0  0  0  0  0  0  0  0  0  0
  -13.9005   13.0884  -28.3089 C   0  0  0  0  0  0  0  0  0  0  0  0
  -12.9287   13.8649  -28.9197 C   0  0  0  0  0  0  0  0  0  0  0  0
  -12.0368   13.3559  -29.7917 N   0  0  0  0  0  0  0  0  0  0  0  0
  -11.1013   14.1107  -30.3730 C   0  0  0  0  0  0  0  0  0  0  0  0
  -11.0415   15.4255  -30.0824 N   0  0  0  0  0  0  0  0  0  0  0  0
  -11.8861   16.0121  -29.2298 C   0  0  0  0  0  0  0  0  0  0  0  0
  -11.7781   17.4108  -29.0008 N   0  0  0  0  0  0  0  0  0  0  0  0
  -10.8907   18.1788  -29.8149 C   0  0  0  0  0  0  0  0  0  0  0  0
  -10.0946   19.1355  -29.2848 C   0  0  0  0  0  0  0  0  0  0  0  0
   -9.2154   19.8766  -30.0864 C   0  0  0  0  0  0  0  0  0  0  0  0
   -9.1685   19.6194  -31.4284 C   0  0  0  0  0  0  0  0  0  0  0  0
   -8.3266   20.3199  -32.2364 F   0  0  0  0  0  0  0  0  0  0  0  0
   -9.9779   18.6375  -32.0018 C   0  0  0  0  0  0  0  0  0  0  0  0
   -9.8850   18.3440  -33.7229 Cl  0  0  0  0  0  0  0  0  0  0  0  0
  -10.8208   17.9424  -31.1699 C   0  0  0  0  0  0  0  0  0  0  0  0
  -12.8526   15.2116  -28.6331 C   0  0  0  0  0  0  0  0  0  0  0  0
  -13.7452   15.7537  -27.7425 C   0  0  0  0  0  0  0  0  0  0  0  0
  -14.7113   14.9765  -27.1345 C   0  0  0  0  0  0  0  0  0  0  0  0
  -15.5953   15.5232  -26.2442 O   0  0  0  0  0  0  0  0  0  0  0  0
  -15.5035   15.2254  -24.8741 C   0  0  0  0  0  0  0  0  0  0  0  0
  -15.3165   16.5325  -24.1507 C   0  0  0  0  0  0  0  0  0  0  0  0
  -16.6436   17.2762  -24.1400 C   0  0  0  0  0  0  0  0  0  0  0  0
  -16.4337   18.5979  -24.4615 O   0  0  0  0  0  0  0  0  0  0  0  0
  -16.3053   19.6160  -23.1305 P   0  0  2  0  0  5  0  0  0  0  0  0
  -15.7536   21.2105  -23.5078 N   0  0  0  0  0  0  0  0  0  0  0  0
  -15.3531   18.9838  -22.0989 O   0  0  0  0  0  0  0  0  0  0  0  0
  -17.8825   19.6418  -22.3335 N   0  0  0  0  0  4  0  0  0  0  0  0
  -18.1188   18.3203  -21.8295 C   0  0  0  0  0  0  0  0  0  0  0  0
  -19.4889   18.0470  -21.3200 C   0  0  0  0  0  0  0  0  0  0  0  0
  -20.2482   19.5706  -20.8073 Cl  0  0  0  0  0  0  0  0  0  0  0  0
  -18.9157   20.1602  -23.1895 C   0  0  0  0  0  0  0  0  0  0  0  0
  -18.7682   21.6896  -23.1987 C   0  0  0  0  0  0  0  0  0  0  0  0
  -20.3712   22.4321  -22.8783 Cl  0  0  0  0  0  0  0  0  0  0  0  0
  1  2  1  0
  2  3  1  0
  3  4  2  0
  4  5  1  0
  5  6  2  0
  6  7  1  0
  7  8  2  0
  8  9  1  0
  9 10  1  0
 10 11  1  0
 11 12  2  0
 12 13  1  0
 13 14  2  0
 14 15  1  0
 14 16  1  0
 16 17  1  0
 16 18  2  0
  9 19  2  0
 19 20  1  0
 20 21  2  0
 21 22  1  0
 22 23  1  0
 23 24  1  0
 24 25  1  0
 25 26  1  0
 26 27  1  0
 27 28  1  6
 27 29  2  0
 27 30  1  0
 30 31  1  0
 31 32  1  0
 32 33  1  0
 30 34  1  0
 34 35  1  0
 35 36  1  0
 21  3  1  0
 19  5  1  0
 18 11  1  0
M  CHG  1  30   1
M  END
$$$$
CHEMBL460721_diffdock_1
     RDKit          3D

 34 36  0  0  0  0  0  0  0  0999 V2000
  -15.9482   22.7952  -17.9490 C   0  0  0  0  0  0  0  0  0  0  0  0
  -14.8948   21.9264  -18.5537 C   0  0  0  0  0  0  0  0  0  0  0  0
  -15.1501   20.5398  -18.3559 N   0  0  0  0  0  4  0  0  0  0  0  0
  -14.5894   19.9662  -17.1770 C   0  0  0  0  0  0  0  0  0  0  0  0
  -14.5081   20.8238  -15.9763 C   0  0  0  0  0  0  0  0  0  0  0  0
  -14.6185   19.8067  -19.4873 C   0  0  0  0  0  0  0  0  0  0  0  0
  -15.6855   19.1016  -20.2970 C   0  0  0  0  0  0  0  0  0  0  0  0
  -15.5199   17.6108  -20.3257 C   0  0  0  0  0  0  0  0  0  0  0  0
  -15.0598   17.2161  -21.6368 N   0  0  0  0  0  0  0  0  0  0  0  0
  -15.7660   17.3765  -22.8458 C   0  0  0  0  0  0  0  0  0  0  0  0
  -16.1918   18.5508  -23.1207 O   0  0  0  0  0  0  0  0  0  0  0  0
  -16.0298   16.2835  -23.7828 C   0  0  0  0  0  0  0  0  0  0  0  0
  -15.4846   16.1860  -24.9795 C   0  0  0  0  0  0  0  0  0  0  0  0
  -15.7559   14.9935  -25.8239 C   0  0  0  0  0  0  0  0  0  0  0  0
  -16.0044   13.8910  -25.2843 O   0  0  0  0  0  0  0  0  0  0  0  0
  -15.7333   15.0996  -27.2995 C   0  0  0  0  0  0  0  0  0  0  0  0
  -14.5021   14.4828  -27.8154 C   0  0  0  0  0  0  0  0  0  0  0  0
  -13.4562   15.2848  -28.2601 C   0  0  0  0  0  0  0  0  0  0  0  0
  -12.2969   14.7486  -28.7417 C   0  0  0  0  0  0  0  0  0  0  0  0
  -11.2366   15.5342  -29.1887 C   0  0  0  0  0  0  0  0  0  0  0  0
  -11.2999   16.9396  -29.1498 N   0  0  0  0  0  0  0  0  0  0  0  0
  -10.2557   17.7771  -29.6423 C   0  0  0  0  0  0  0  0  0  0  0  0
   -9.7381   18.8589  -28.9795 C   0  0  0  0  0  0  0  0  0  0  0  0
   -8.7357   19.6255  -29.5605 C   0  0  0  0  0  0  0  0  0  0  0  0
   -8.2354   19.3274  -30.8053 C   0  0  0  0  0  0  0  0  0  0  0  0
   -8.7563   18.2447  -31.4626 C   0  0  0  0  0  0  0  0  0  0  0  0
   -8.0621   17.8237  -33.2016 Br  0  0  0  0  0  0  0  0  0  0  0  0
   -9.7430   17.4802  -30.9049 C   0  0  0  0  0  0  0  0  0  0  0  0
  -10.1572   14.8628  -29.6334 N   0  0  0  0  0  0  0  0  0  0  0  0
  -10.0942   13.5291  -29.6501 C   0  0  0  0  0  0  0  0  0  0  0  0
  -11.1092   12.7607  -29.2218 N   0  0  0  0  0  0  0  0  0  0  0  0
  -12.2225   13.3572  -28.7624 C   0  0  0  0  0  0  0  0  0  0  0  0
  -13.2601   12.5647  -28.3214 C   0  0  0  0  0  0  0  0  0  0  0  0
  -14.3634   13.1598  -27.8634 N   0  0  0  0  0  0  0  0  0  0  0  0
  1  2  1  0
  3  2  1  0
  3  4  1  0
  4  5  1  0
  3  6  1  0
  6  7  1  0
  7  8  1  0
  8  9  1  0
  9 10  1  0
 10 11  2  0
 10 12  1  0
 12 13  2  0
 13 14  1  0
 14 15  2  0
 14 16  1  0
 16 17  1  0
 17 18  2  0
 18 19  1  0
 19 20  2  0
 20 21  1  0
 21 22  1  0
 22 23  2  0
 23 24  1  0
 24 25  2  0
 25 26  1  0
 26 27  1  0
 26 28  2  0
 20 29  1  0
 29 30  2  0
 30 31  1  0
 31 32  2  0
 32 33  1  0
 33 34  2  0
 34 17  1  0
 32 19  1  0
 28 22  1  0
M  CHG  1   3   1
M  END
$$$$
CHEMBL460721_diffdock_2
     RDKit          3D

 34 36  0  0  0  0  0  0  0  0999 V2000
  -15.9486   22.0297  -18.0929 C   0  0  0  0  0  0  0  0  0  0  0  0
  -16.6119   21.2333  -17.0178 C   0  0  0  0  0  0  0  0  0  0  0  0
  -16.3480   19.8387  -17.1290 N   0  0  0  0  0  4  0  0  0  0  0  0
  -15.4513   19.2963  -16.1620 C   0  0  0  0  0  0  0  0  0  0  0  0
  -15.9115   18.1224  -15.3914 C   0  0  0  0  0  0  0  0  0  0  0  0
  -15.7806   19.5792  -18.4369 C   0  0  0  0  0  0  0  0  0  0  0  0
  -16.4731   18.4544  -19.1762 C   0  0  0  0  0  0  0  0  0  0  0  0
  -15.5815   17.2752  -19.4315 C   0  0  0  0  0  0  0  0  0  0  0  0
  -15.0902   17.3449  -20.7880 N   0  0  0  0  0  0  0  0  0  0  0  0
  -15.5805   16.6095  -21.8858 C   0  0  0  0  0  0  0  0  0  0  0  0
  -16.2273   15.5369  -21.6266 O   0  0  0  0  0  0  0  0  0  0  0  0
  -15.3878   17.0079  -23.2809 C   0  0  0  0  0  0  0  0  0  0  0  0
  -15.5123   16.1910  -24.3085 C   0  0  0  0  0  0  0  0  0  0  0  0
  -15.1419   16.6515  -25.6721 C   0  0  0  0  0  0  0  0  0  0  0  0
  -14.4979   17.7158  -25.8171 O   0  0  0  0  0  0  0  0  0  0  0  0
  -15.5302   15.8611  -26.8610 C   0  0  0  0  0  0  0  0  0  0  0  0
  -14.3619   15.1190  -27.3579 C   0  0  0  0  0  0  0  0  0  0  0  0
  -13.3592   15.7858  -28.0541 C   0  0  0  0  0  0  0  0  0  0  0  0
  -12.2585   15.1315  -28.5269 C   0  0  0  0  0  0  0  0  0  0  0  0
  -11.2418   15.7814  -29.2235 C   0  0  0  0  0  0  0  0  0  0  0  0
  -11.2894   17.1674  -29.4636 N   0  0  0  0  0  0  0  0  0  0  0  0
  -10.3035   17.8562  -30.2302 C   0  0  0  0  0  0  0  0  0  0  0  0
   -9.7001   19.0297  -29.8609 C   0  0  0  0  0  0  0  0  0  0  0  0
   -8.7669   19.6331  -30.6946 C   0  0  0  0  0  0  0  0  0  0  0  0
   -8.4214   19.0789  -31.9038 C   0  0  0  0  0  0  0  0  0  0  0  0
   -9.0274   17.9057  -32.2672 C   0  0  0  0  0  0  0  0  0  0  0  0
   -8.5496   17.1272  -33.9551 Br  0  0  0  0  0  0  0  0  0  0  0  0
   -9.9478   17.2993  -31.4584 C   0  0  0  0  0  0  0  0  0  0  0  0
  -10.2179   15.0045  -29.6254 N   0  0  0  0  0  0  0  0  0  0  0  0
  -10.1679   13.6932  -29.3782 C   0  0  0  0  0  0  0  0  0  0  0  0
  -11.1411   13.0551  -28.7075 N   0  0  0  0  0  0  0  0  0  0  0  0
  -12.1978   13.7627  -28.2730 C   0  0  0  0  0  0  0  0  0  0  0  0
  -13.1926   13.1041  -27.5830 C   0  0  0  0  0  0  0  0  0  0  0  0
  -14.2395   13.8098  -27.1506 N   0  0  0  0  0  0  0  0  0  0  0  0
  1  2  1  0
  3  2  1  0
  3  4  1  0
  4  5  1  0
  3  6  1  0
  6  7  1  0
  7  8  1  0
  8  9  1  0
  9 10  1  0
 10 11  2  0
 10 12  1  0
 12 13  2  0
 13 14  1  0
 14 15  2  0
 14 16  1  0
 16 17  1  0
 17 18  2  0
 18 19  1  0
 19 20  2  0
 20 21  1  0
 21 22  1  0
 22 23  2  0
 23 24  1  0
 24 25  2  0
 25 26  1  0
 26 27  1  0
 26 28  2  0
 20 29  1  0
 29 30  2  0
 30 31  1  0
 31 32  2  0
 32 33  1  0
 33 34  2  0
 34 17  1  0
 32 19  1  0
 28 22  1  0
M  CHG  1   3   1
M  END
$$$$
CHEMBL460721_diffdock_3
     RDKit          3D

 34 36  0  0  0  0  0  0  0  0999 V2000
  -15.3791   21.1525  -18.9636 C   0  0  0  0  0  0  0  0  0  0  0  0
  -15.5239   22.3059  -19.9012 C   0  0  0  0  0  0  0  0  0  0  0  0
  -14.3716   22.4962  -20.7155 N   0  0  0  0  0  4  0  0  0  0  0  0
  -13.5723   23.6356  -20.4054 C   0  0  0  0  0  0  0  0  0  0  0  0
  -12.6652   24.1365  -21.4590 C   0  0  0  0  0  0  0  0  0  0  0  0
  -14.7978   22.6304  -22.0940 C   0  0  0  0  0  0  0  0  0  0  0  0
  -14.6749   21.3457  -22.8850 C   0  0  0  0  0  0  0  0  0  0  0  0
  -15.1626   21.4705  -24.2983 C   0  0  0  0  0  0  0  0  0  0  0  0
  -16.2676   20.5610  -24.4942 N   0  0  0  0  0  0  0  0  0  0  0  0
  -16.2932   19.4676  -25.3830 C   0  0  0  0  0  0  0  0  0  0  0  0
  -16.9347   19.6220  -26.4787 O   0  0  0  0  0  0  0  0  0  0  0  0
  -15.6332   18.1888  -25.1160 C   0  0  0  0  0  0  0  0  0  0  0  0
  -15.7806   17.1097  -25.8593 C   0  0  0  0  0  0  0  0  0  0  0  0
  -15.1206   15.8388  -25.4622 C   0  0  0  0  0  0  0  0  0  0  0  0
  -14.3376   15.8219  -24.4848 O   0  0  0  0  0  0  0  0  0  0  0  0
  -15.3815   14.5920  -26.2149 C   0  0  0  0  0  0  0  0  0  0  0  0
  -14.1585   14.1823  -26.9214 C   0  0  0  0  0  0  0  0  0  0  0  0
  -13.3273   15.1433  -27.4872 C   0  0  0  0  0  0  0  0  0  0  0  0
  -12.1822   14.8013  -28.1469 C   0  0  0  0  0  0  0  0  0  0  0  0
  -11.3346   15.7485  -28.7176 C   0  0  0  0  0  0  0  0  0  0  0  0
  -11.6096   17.1258  -28.6269 N   0  0  0  0  0  0  0  0  0  0  0  0
  -10.7667   18.1244  -29.1983 C   0  0  0  0  0  0  0  0  0  0  0  0
  -10.8391   19.4648  -28.9227 C   0  0  0  0  0  0  0  0  0  0  0  0
   -9.9843   20.3593  -29.5543 C   0  0  0  0  0  0  0  0  0  0  0  0
   -9.0477   19.9345  -30.4659 C   0  0  0  0  0  0  0  0  0  0  0  0
   -8.9797   18.5936  -30.7367 C   0  0  0  0  0  0  0  0  0  0  0  0
   -7.6743   17.9941  -32.0095 Br  0  0  0  0  0  0  0  0  0  0  0  0
   -9.8138   17.7003  -30.1240 C   0  0  0  0  0  0  0  0  0  0  0  0
  -10.2411   15.2602  -29.3336 N   0  0  0  0  0  0  0  0  0  0  0  0
   -9.9742   13.9536  -29.4001 C   0  0  0  0  0  0  0  0  0  0  0  0
  -10.7830   13.0307  -28.8539 N   0  0  0  0  0  0  0  0  0  0  0  0
  -11.8958   13.4396  -28.2209 C   0  0  0  0  0  0  0  0  0  0  0  0
  -12.7210   12.4892  -27.6596 C   0  0  0  0  0  0  0  0  0  0  0  0
  -13.8240   12.8983  -27.0294 N   0  0  0  0  0  0  0  0  0  0  0  0
  1  2  1  0
  3  2  1  0
  3  4  1  0
  4  5  1  0
  3  6  1  0
  6  7  1  0
  7  8  1  0
  8  9  1  0
  9 10  1  0
 10 11  2  0
 10 12  1  0
 12 13  2  0
 13 14  1  0
 14 15  2  0
 14 16  1  0
 16 17  1  0
 17 18  2  0
 18 19  1  0
 19 20  2  0
 20 21  1  0
 21 22  1  0
 22 23  2  0
 23 24  1  0
 24 25  2  0
 25 26  1  0
 26 27  1  0
 26 28  2  0
 20 29  1  0
 29 30  2  0
 30 31  1  0
 31 32  2  0
 32 33  1  0
 33 34  2  0
 34 17  1  0
 32 19  1  0
 28 22  1  0
M  CHG  1   3   1
M  END
$$$$
CHEMBL460721_diffdock_4
     RDKit          3D

 34 36  0  0  0  0  0  0  0  0999 V2000
  -11.4222   23.6836  -21.8473 C   0  0  0  0  0  0  0  0  0  0  0  0
  -12.4972   24.6536  -21.4816 C   0  0  0  0  0  0  0  0  0  0  0  0
  -13.5469   24.6939  -22.4425 N   0  0  0  0  0  4  0  0  0  0  0  0
  -14.8634   24.4890  -21.9345 C   0  0  0  0  0  0  0  0  0  0  0  0
  -15.3131   25.3701  -20.8367 C   0  0  0  0  0  0  0  0  0  0  0  0
  -13.3030   23.6671  -23.4356 C   0  0  0  0  0  0  0  0  0  0  0  0
  -12.3425   24.1024  -24.5215 C   0  0  0  0  0  0  0  0  0  0  0  0
  -12.6958   23.5641  -25.8765 C   0  0  0  0  0  0  0  0  0  0  0  0
  -11.8780   22.4048  -26.1475 N   0  0  0  0  0  0  0  0  0  0  0  0
  -12.1762   21.3761  -27.0636 C   0  0  0  0  0  0  0  0  0  0  0  0
  -13.1912   21.5478  -27.8226 O   0  0  0  0  0  0  0  0  0  0  0  0
  -11.3940   20.1449  -27.1845 C   0  0  0  0  0  0  0  0  0  0  0  0
  -11.5902   19.2311  -28.1147 C   0  0  0  0  0  0  0  0  0  0  0  0
  -10.4338   18.4919  -28.6847 C   0  0  0  0  0  0  0  0  0  0  0  0
   -9.3411   18.4763  -28.0730 O   0  0  0  0  0  0  0  0  0  0  0  0
  -10.5643   17.7743  -29.9720 C   0  0  0  0  0  0  0  0  0  0  0  0
  -10.7023   16.3327  -29.7166 C   0  0  0  0  0  0  0  0  0  0  0  0
  -11.7660   15.8601  -28.9551 C   0  0  0  0  0  0  0  0  0  0  0  0
  -11.9292   14.5290  -28.7004 C   0  0  0  0  0  0  0  0  0  0  0  0
  -12.9892   14.0351  -27.9431 C   0  0  0  0  0  0  0  0  0  0  0  0
  -13.9693   14.8927  -27.4094 N   0  0  0  0  0  0  0  0  0  0  0  0
  -15.0543   14.4277  -26.6089 C   0  0  0  0  0  0  0  0  0  0  0  0
  -15.8354   15.2195  -25.8085 C   0  0  0  0  0  0  0  0  0  0  0  0
  -16.8549   14.6611  -25.0478 C   0  0  0  0  0  0  0  0  0  0  0  0
  -17.1114   13.3112  -25.0727 C   0  0  0  0  0  0  0  0  0  0  0  0
  -16.3277   12.5250  -25.8750 C   0  0  0  0  0  0  0  0  0  0  0  0
  -16.6804   10.6389  -25.9137 Br  0  0  0  0  0  0  0  0  0  0  0  0
  -15.3204   13.0589  -26.6296 C   0  0  0  0  0  0  0  0  0  0  0  0
  -13.0193   12.6988  -27.7791 N   0  0  0  0  0  0  0  0  0  0  0  0
  -12.0979   11.8873  -28.3040 C   0  0  0  0  0  0  0  0  0  0  0  0
  -11.0715   12.3508  -29.0360 N   0  0  0  0  0  0  0  0  0  0  0  0
  -10.9722   13.6747  -29.2447 C   0  0  0  0  0  0  0  0  0  0  0  0
   -9.9190   14.1453  -29.9987 C   0  0  0  0  0  0  0  0  0  0  0  0
   -9.8243   15.4602  -30.2064 N   0  0  0  0  0  0  0  0  0  0  0  0
  1  2  1  0
  3  2  1  0
  3  4  1  0
  4  5  1  0
  3  6  1  0
  6  7  1  0
  7  8  1  0
  8  9  1  0
  9 10  1  0
 10 11  2  0
 10 12  1  0
 12 13  2  0
 13 14  1  0
 14 15  2  0
 14 16  1  0
 16 17  1  0
 17 18  2  0
 18 19  1  0
 19 20  2  0
 20 21  1  0
 21 22  1  0
 22 23  2  0
 23 24  1  0
 24 25  2  0
 25 26  1  0
 26 27  1  0
 26 28  2  0
 20 29  1  0
 29 30  2  0
 30 31  1  0
 31 32  2  0
 32 33  1  0
 33 34  2  0
 34 17  1  0
 32 19  1  0
 28 22  1  0
M  CHG  1   3   1
M  END
$$$$
CHEMBL460721_diffdock_5
     RDKit          3D

 34 36  0  0  0  0  0  0  0  0999 V2000
  -17.9421   21.2671  -17.6985 C   0  0  0  0  0  0  0  0  0  0  0  0
  -16.8770   20.5259  -16.9592 C   0  0  0  0  0  0  0  0  0  0  0  0
  -17.3633   19.3357  -16.3478 N   0  0  0  0  0  4  0  0  0  0  0  0
  -16.5496   18.7920  -15.3108 C   0  0  0  0  0  0  0  0  0  0  0  0
  -16.4502   17.3201  -15.2258 C   0  0  0  0  0  0  0  0  0  0  0  0
  -17.5005   18.3157  -17.3681 C   0  0  0  0  0  0  0  0  0  0  0  0
  -16.4398   18.4012  -18.4447 C   0  0  0  0  0  0  0  0  0  0  0  0
  -16.9774   18.1715  -19.8263 C   0  0  0  0  0  0  0  0  0  0  0  0
  -16.2713   17.0627  -20.4250 N   0  0  0  0  0  0  0  0  0  0  0  0
  -16.5205   16.5118  -21.6980 C   0  0  0  0  0  0  0  0  0  0  0  0
  -17.5991   15.8394  -21.8411 O   0  0  0  0  0  0  0  0  0  0  0  0
  -15.6206   16.6701  -22.8413 C   0  0  0  0  0  0  0  0  0  0  0  0
  -15.7582   16.0309  -23.9865 C   0  0  0  0  0  0  0  0  0  0  0  0
  -14.7986   16.2773  -25.0942 C   0  0  0  0  0  0  0  0  0  0  0  0
  -13.7398   16.9086  -24.8729 O   0  0  0  0  0  0  0  0  0  0  0  0
  -15.0862   15.7824  -26.4585 C   0  0  0  0  0  0  0  0  0  0  0  0
  -13.9026   15.0872  -26.9862 C   0  0  0  0  0  0  0  0  0  0  0  0
  -12.9077   15.8064  -27.6399 C   0  0  0  0  0  0  0  0  0  0  0  0
  -11.7933   15.1965  -28.1394 C   0  0  0  0  0  0  0  0  0  0  0  0
  -10.7841   15.8992  -28.7943 C   0  0  0  0  0  0  0  0  0  0  0  0
  -10.8539   17.2949  -28.9614 N   0  0  0  0  0  0  0  0  0  0  0  0
   -9.9647   18.0202  -29.8084 C   0  0  0  0  0  0  0  0  0  0  0  0
   -9.3584   19.2044  -29.4801 C   0  0  0  0  0  0  0  0  0  0  0  0
   -8.5260   19.8438  -30.3902 C   0  0  0  0  0  0  0  0  0  0  0  0
   -8.2853   19.3156  -31.6359 C   0  0  0  0  0  0  0  0  0  0  0  0
   -8.8937   18.1316  -31.9580 C   0  0  0  0  0  0  0  0  0  0  0  0
   -8.5620   17.3892  -33.6964 Br  0  0  0  0  0  0  0  0  0  0  0  0
   -9.7157   17.4898  -31.0740 C   0  0  0  0  0  0  0  0  0  0  0  0
   -9.7448   15.1617  -29.2299 N   0  0  0  0  0  0  0  0  0  0  0  0
   -9.6738   13.8403  -29.0517 C   0  0  0  0  0  0  0  0  0  0  0  0
  -10.6397   13.1514  -28.4219 N   0  0  0  0  0  0  0  0  0  0  0  0
  -11.7107   13.8174  -27.9576 C   0  0  0  0  0  0  0  0  0  0  0  0
  -12.6979   13.1068  -27.3096 C   0  0  0  0  0  0  0  0  0  0  0  0
  -13.7591   13.7711  -26.8473 N   0  0  0  0  0  0  0  0  0  0  0  0
  1  2  1  0
  3  2  1  0
  3  4  1  0
  4  5  1  0
  3  6  1  0
  6  7  1  0
  7  8  1  0
  8  9  1  0
  9 10  1  0
 10 11  2  0
 10 12  1  0
 12 13  2  0
 13 14  1  0
 14 15  2  0
 14 16  1  0
 16 17  1  0
 17 18  2  0
 18 19  1  0
 19 20  2  0
 20 21  1  0
 21 22  1  0
 22 23  2  0
 23 24  1  0
 24 25  2  0
 25 26  1  0
 26 27  1  0
 26 28  2  0
 20 29  1  0
 29 30  2  0
 30 31  1  0
 31 32  2  0
 32 33  1  0
 33 34  2  0
 34 17  1  0
 32 19  1  0
 28 22  1  0
M  CHG  1   3   1
M  END
$$$$
CHEMBL460721_diffdock_6
     RDKit          3D

 34 36  0  0  0  0  0  0  0  0999 V2000
  -22.2952   22.4367  -22.0488 C   0  0  0  0  0  0  0  0  0  0  0  0
  -21.0761   23.0536  -22.6518 C   0  0  0  0  0  0  0  0  0  0  0  0
  -19.8956   22.7707  -21.9081 N   0  0  0  0  0  4  0  0  0  0  0  0
  -19.4508   23.8031  -21.0308 C   0  0  0  0  0  0  0  0  0  0  0  0
  -20.4150   24.3077  -20.0310 C   0  0  0  0  0  0  0  0  0  0  0  0
  -18.8177   22.5010  -22.8383 C   0  0  0  0  0  0  0  0  0  0  0  0
  -17.9022   21.3843  -22.3843 C   0  0  0  0  0  0  0  0  0  0  0  0
  -17.9734   20.1667  -23.2579 C   0  0  0  0  0  0  0  0  0  0  0  0
  -17.0539   19.1738  -22.7530 N   0  0  0  0  0  0  0  0  0  0  0  0
  -15.9321   18.6607  -23.4345 C   0  0  0  0  0  0  0  0  0  0  0  0
  -14.7819   18.9080  -22.9328 O   0  0  0  0  0  0  0  0  0  0  0  0
  -16.0202   17.8736  -24.6654 C   0  0  0  0  0  0  0  0  0  0  0  0
  -15.0669   17.0749  -25.1037 C   0  0  0  0  0  0  0  0  0  0  0  0
  -15.3838   16.0163  -26.0974 C   0  0  0  0  0  0  0  0  0  0  0  0
  -16.0056   16.3099  -27.1442 O   0  0  0  0  0  0  0  0  0  0  0  0
  -14.9704   14.6160  -25.8579 C   0  0  0  0  0  0  0  0  0  0  0  0
  -14.0654   14.1825  -26.9329 C   0  0  0  0  0  0  0  0  0  0  0  0
  -13.1409   15.0748  -27.4656 C   0  0  0  0  0  0  0  0  0  0  0  0
  -12.2821   14.7076  -28.4611 C   0  0  0  0  0  0  0  0  0  0  0  0
  -11.3469   15.5850  -29.0058 C   0  0  0  0  0  0  0  0  0  0  0  0
  -11.2258   16.9074  -28.5396 N   0  0  0  0  0  0  0  0  0  0  0  0
  -10.2190   17.8046  -29.0041 C   0  0  0  0  0  0  0  0  0  0  0  0
   -9.5923   18.7487  -28.2336 C   0  0  0  0  0  0  0  0  0  0  0  0
   -8.6397   19.5919  -28.7917 C   0  0  0  0  0  0  0  0  0  0  0  0
   -8.2976   19.5078  -30.1200 C   0  0  0  0  0  0  0  0  0  0  0  0
   -8.9270   18.5619  -30.8849 C   0  0  0  0  0  0  0  0  0  0  0  0
   -8.4541   18.4400  -32.7409 Br  0  0  0  0  0  0  0  0  0  0  0  0
   -9.8667   17.7246  -30.3511 C   0  0  0  0  0  0  0  0  0  0  0  0
  -10.5665   15.0786  -29.9796 N   0  0  0  0  0  0  0  0  0  0  0  0
  -10.6720   13.8173  -30.4050 C   0  0  0  0  0  0  0  0  0  0  0  0
  -11.5690   12.9617  -29.8880 N   0  0  0  0  0  0  0  0  0  0  0  0
  -12.3850   13.3927  -28.9110 C   0  0  0  0  0  0  0  0  0  0  0  0
  -13.3019   12.5104  -28.3817 C   0  0  0  0  0  0  0  0  0  0  0  0
  -14.1092   12.9405  -27.4099 N   0  0  0  0  0  0  0  0  0  0  0  0
  1  2  1  0
  3  2  1  0
  3  4  1  0
  4  5  1  0
  3  6  1  0
  6  7  1  0
  7  8  1  0
  8  9  1  0
  9 10  1  0
 10 11  2  0
 10 12  1  0
 12 13  2  0
 13 14  1  0
 14 15  2  0
 14 16  1  0
 16 17  1  0
 17 18  2  0
 18 19  1  0
 19 20  2  0
 20 21  1  0
 21 22  1  0
 22 23  2  0
 23 24  1  0
 24 25  2  0
 25 26  1  0
 26 27  1  0
 26 28  2  0
 20 29  1  0
 29 30  2  0
 30 31  1  0
 31 32  2  0
 32 33  1  0
 33 34  2  0
 34 17  1  0
 32 19  1  0
 28 22  1  0
M  CHG  1   3   1
M  END
$$$$
CHEMBL460721_diffdock_7
     RDKit          3D

 34 36  0  0  0  0  0  0  0  0999 V2000
  -22.9943   10.6634  -18.5008 C   0  0  0  0  0  0  0  0  0  0  0  0
  -21.9857   11.7347  -18.2452 C   0  0  0  0  0  0  0  0  0  0  0  0
  -20.6708   11.3512  -18.6337 N   0  0  0  0  0  4  0  0  0  0  0  0
  -19.6847   12.3802  -18.5906 C   0  0  0  0  0  0  0  0  0  0  0  0
  -19.8590   13.4470  -17.5829 C   0  0  0  0  0  0  0  0  0  0  0  0
  -20.7179   10.8555  -19.9946 C   0  0  0  0  0  0  0  0  0  0  0  0
  -20.5091   11.9378  -21.0321 C   0  0  0  0  0  0  0  0  0  0  0  0
  -19.5655   11.5357  -22.1269 C   0  0  0  0  0  0  0  0  0  0  0  0
  -19.4261   12.6360  -23.0523 N   0  0  0  0  0  0  0  0  0  0  0  0
  -18.5790   12.6696  -24.1782 C   0  0  0  0  0  0  0  0  0  0  0  0
  -18.5866   11.6453  -24.9441 O   0  0  0  0  0  0  0  0  0  0  0  0
  -17.7080   13.7995  -24.5052 C   0  0  0  0  0  0  0  0  0  0  0  0
  -17.1149   13.9643  -25.6713 C   0  0  0  0  0  0  0  0  0  0  0  0
  -16.2409   15.1443  -25.8995 C   0  0  0  0  0  0  0  0  0  0  0  0
  -15.7626   15.7642  -24.9219 O   0  0  0  0  0  0  0  0  0  0  0  0
  -15.9323   15.5933  -27.2751 C   0  0  0  0  0  0  0  0  0  0  0  0
  -14.6772   14.9714  -27.7227 C   0  0  0  0  0  0  0  0  0  0  0  0
  -13.5419   15.7529  -27.9097 C   0  0  0  0  0  0  0  0  0  0  0  0
  -12.3584   15.2107  -28.3203 C   0  0  0  0  0  0  0  0  0  0  0  0
  -11.2094   15.9754  -28.5104 C   0  0  0  0  0  0  0  0  0  0  0  0
  -11.2048   17.3619  -28.2686 N   0  0  0  0  0  0  0  0  0  0  0  0
  -10.1041   18.2043  -28.6048 C   0  0  0  0  0  0  0  0  0  0  0  0
  -10.0648   19.5602  -28.4104 C   0  0  0  0  0  0  0  0  0  0  0  0
   -8.9501   20.2936  -28.7969 C   0  0  0  0  0  0  0  0  0  0  0  0
   -7.8617   19.6905  -29.3801 C   0  0  0  0  0  0  0  0  0  0  0  0
   -7.9066   18.3350  -29.5713 C   0  0  0  0  0  0  0  0  0  0  0  0
   -6.3899   17.4869  -30.3859 Br  0  0  0  0  0  0  0  0  0  0  0  0
   -8.9960   17.5988  -29.1968 C   0  0  0  0  0  0  0  0  0  0  0  0
  -10.1168   15.3001  -28.9151 N   0  0  0  0  0  0  0  0  0  0  0  0
  -10.1209   13.9813  -29.1243 C   0  0  0  0  0  0  0  0  0  0  0  0
  -11.2217   13.2330  -28.9444 N   0  0  0  0  0  0  0  0  0  0  0  0
  -12.3536   13.8347  -28.5408 C   0  0  0  0  0  0  0  0  0  0  0  0
  -13.4798   13.0624  -28.3550 C   0  0  0  0  0  0  0  0  0  0  0  0
  -14.6017   13.6622  -27.9517 N   0  0  0  0  0  0  0  0  0  0  0  0
  1  2  1  0
  3  2  1  0
  3  4  1  0
  4  5  1  0
  3  6  1  0
  6  7  1  0
  7  8  1  0
  8  9  1  0
  9 10  1  0
 10 11  2  0
 10 12  1  0
 12 13  2  0
 13 14  1  0
 14 15  2  0
 14 16  1  0
 16 17  1  0
 17 18  2  0
 18 19  1  0
 19 20  2  0
 20 21  1  0
 21 22  1  0
 22 23  2  0
 23 24  1  0
 24 25  2  0
 25 26  1  0
 26 27  1  0
 26 28  2  0
 20 29  1  0
 29 30  2  0
 30 31  1  0
 31 32  2  0
 32 33  1  0
 33 34  2  0
 34 17  1  0
 32 19  1  0
 28 22  1  0
M  CHG  1   3   1
M  END
$$$$
CHEMBL460721_diffdock_8
     RDKit          3D

 34 36  0  0  0  0  0  0  0  0999 V2000
  -14.5658   18.4853  -16.5791 C   0  0  0  0  0  0  0  0  0  0  0  0
  -15.7364   18.7010  -17.4810 C   0  0  0  0  0  0  0  0  0  0  0  0
  -15.6228   19.8952  -18.2477 N   0  0  0  0  0  4  0  0  0  0  0  0
  -16.1819   21.0676  -17.6594 C   0  0  0  0  0  0  0  0  0  0  0  0
  -17.1692   21.8239  -18.4575 C   0  0  0  0  0  0  0  0  0  0  0  0
  -16.2870   19.6920  -19.5195 C   0  0  0  0  0  0  0  0  0  0  0  0
  -15.3291   19.3908  -20.6523 C   0  0  0  0  0  0  0  0  0  0  0  0
  -15.6529   20.1321  -21.9157 C   0  0  0  0  0  0  0  0  0  0  0  0
  -16.2742   19.2199  -22.8475 N   0  0  0  0  0  0  0  0  0  0  0  0
  -15.6916   18.7170  -24.0282 C   0  0  0  0  0  0  0  0  0  0  0  0
  -14.9817   19.5266  -24.7185 O   0  0  0  0  0  0  0  0  0  0  0  0
  -15.8579   17.3389  -24.4922 C   0  0  0  0  0  0  0  0  0  0  0  0
  -15.4687   16.9033  -25.6744 C   0  0  0  0  0  0  0  0  0  0  0  0
  -15.9474   15.5888  -26.1758 C   0  0  0  0  0  0  0  0  0  0  0  0
  -16.3815   14.7345  -25.3693 O   0  0  0  0  0  0  0  0  0  0  0  0
  -15.9137   15.2813  -27.6226 C   0  0  0  0  0  0  0  0  0  0  0  0
  -14.6031   14.7129  -27.9715 C   0  0  0  0  0  0  0  0  0  0  0  0
  -13.5718   15.5479  -28.3885 C   0  0  0  0  0  0  0  0  0  0  0  0
  -12.3410   15.0573  -28.7167 C   0  0  0  0  0  0  0  0  0  0  0  0
  -11.2941   15.8768  -29.1333 C   0  0  0  0  0  0  0  0  0  0  0  0
  -11.4482   17.2730  -29.2216 N   0  0  0  0  0  0  0  0  0  0  0  0
  -10.4156   18.1395  -29.6876 C   0  0  0  0  0  0  0  0  0  0  0  0
  -10.5744   19.4719  -29.9654 C   0  0  0  0  0  0  0  0  0  0  0  0
   -9.5063   20.2232  -30.4394 C   0  0  0  0  0  0  0  0  0  0  0  0
   -8.2687   19.6615  -30.6426 C   0  0  0  0  0  0  0  0  0  0  0  0
   -8.1160   18.3295  -30.3626 C   0  0  0  0  0  0  0  0  0  0  0  0
   -6.3900   17.5391  -30.6451 Br  0  0  0  0  0  0  0  0  0  0  0  0
   -9.1569   17.5762  -29.8958 C   0  0  0  0  0  0  0  0  0  0  0  0
  -10.1377   15.2492  -29.4205 N   0  0  0  0  0  0  0  0  0  0  0  0
   -9.9904   13.9262  -29.3164 C   0  0  0  0  0  0  0  0  0  0  0  0
  -10.9916   13.1253  -28.9157 N   0  0  0  0  0  0  0  0  0  0  0  0
  -12.1783   13.6774  -28.6106 C   0  0  0  0  0  0  0  0  0  0  0  0
  -13.2017   12.8520  -28.1973 C   0  0  0  0  0  0  0  0  0  0  0  0
  -14.3783   13.4032  -27.8926 N   0  0  0  0  0  0  0  0  0  0  0  0
  1  2  1  0
  3  2  1  0
  3  4  1  0
  4  5  1  0
  3  6  1  0
  6  7  1  0
  7  8  1  0
  8  9  1  0
  9 10  1  0
 10 11  2  0
 10 12  1  0
 12 13  2  0
 13 14  1  0
 14 15  2  0
 14 16  1  0
 16 17  1  0
 17 18  2  0
 18 19  1  0
 19 20  2  0
 20 21  1  0
 21 22  1  0
 22 23  2  0
 23 24  1  0
 24 25  2  0
 25 26  1  0
 26 27  1  0
 26 28  2  0
 20 29  1  0
 29 30  2  0
 30 31  1  0
 31 32  2  0
 32 33  1  0
 33 34  2  0
 34 17  1  0
 32 19  1  0
 28 22  1  0
M  CHG  1   3   1
M  END
$$$$
CHEMBL460721_diffdock_9
     RDKit          3D

 34 36  0  0  0  0  0  0  0  0999 V2000
  -24.5994   12.0852  -23.2052 C   0  0  0  0  0  0  0  0  0  0  0  0
  -23.5352   12.8832  -22.5263 C   0  0  0  0  0  0  0  0  0  0  0  0
  -22.7838   12.1117  -21.5952 N   0  0  0  0  0  4  0  0  0  0  0  0
  -22.6467   12.6717  -20.2910 C   0  0  0  0  0  0  0  0  0  0  0  0
  -23.8869   12.9535  -19.5385 C   0  0  0  0  0  0  0  0  0  0  0  0
  -21.4486   11.9208  -22.1252 C   0  0  0  0  0  0  0  0  0  0  0  0
  -21.2642   10.5849  -22.8127 C   0  0  0  0  0  0  0  0  0  0  0  0
  -19.8414   10.3087  -23.2000 C   0  0  0  0  0  0  0  0  0  0  0  0
  -19.3706   11.3795  -24.0474 N   0  0  0  0  0  0  0  0  0  0  0  0
  -18.0852   11.4820  -24.6162 C   0  0  0  0  0  0  0  0  0  0  0  0
  -17.3366   10.4468  -24.5552 O   0  0  0  0  0  0  0  0  0  0  0  0
  -17.5771   12.6939  -25.2607 C   0  0  0  0  0  0  0  0  0  0  0  0
  -16.3072   13.0493  -25.2736 C   0  0  0  0  0  0  0  0  0  0  0  0
  -15.9137   14.3783  -25.8096 C   0  0  0  0  0  0  0  0  0  0  0  0
  -16.7618   15.0909  -26.3939 O   0  0  0  0  0  0  0  0  0  0  0  0
  -14.5249   14.8657  -25.6586 C   0  0  0  0  0  0  0  0  0  0  0  0
  -13.6713   14.2333  -26.6754 C   0  0  0  0  0  0  0  0  0  0  0  0
  -12.8150   15.0122  -27.4466 C   0  0  0  0  0  0  0  0  0  0  0  0
  -12.0052   14.4604  -28.3969 C   0  0  0  0  0  0  0  0  0  0  0  0
  -11.1383   15.2225  -29.1774 C   0  0  0  0  0  0  0  0  0  0  0  0
  -11.0387   16.6166  -29.0119 N   0  0  0  0  0  0  0  0  0  0  0  0
  -10.1735   17.4314  -29.8004 C   0  0  0  0  0  0  0  0  0  0  0  0
   -9.8571   17.1996  -31.1133 C   0  0  0  0  0  0  0  0  0  0  0  0
   -8.9820   18.0438  -31.7851 C   0  0  0  0  0  0  0  0  0  0  0  0
   -8.4111   19.1277  -31.1622 C   0  0  0  0  0  0  0  0  0  0  0  0
   -8.7316   19.3546  -29.8501 C   0  0  0  0  0  0  0  0  0  0  0  0
   -7.9371   20.8664  -28.9745 Br  0  0  0  0  0  0  0  0  0  0  0  0
   -9.5909   18.5333  -29.1747 C   0  0  0  0  0  0  0  0  0  0  0  0
  -10.4002   14.5377  -30.0716 N   0  0  0  0  0  0  0  0  0  0  0  0
  -10.4840   13.2124  -30.2114 C   0  0  0  0  0  0  0  0  0  0  0  0
  -11.3153   12.4665  -29.4652 N   0  0  0  0  0  0  0  0  0  0  0  0
  -12.0859   13.0776  -28.5493 C   0  0  0  0  0  0  0  0  0  0  0  0
  -12.9353   12.3079  -27.7841 C   0  0  0  0  0  0  0  0  0  0  0  0
  -13.6976   12.9172  -26.8737 N   0  0  0  0  0  0  0  0  0  0  0  0
  1  2  1  0
  3  2  1  0
  3  4  1  0
  4  5  1  0
  3  6  1  0
  6  7  1  0
  7  8  1  0
  8  9  1  0
  9 10  1  0
 10 11  2  0
 10 12  1  0
 12 13  2  0
 13 14  1  0
 14 15  2  0
 14 16  1  0
 16 17  1  0
 17 18  2  0
 18 19  1  0
 19 20  2  0
 20 21  1  0
 21 22  1  0
 22 23  2  0
 23 24  1  0
 24 25  2  0
 25 26  1  0
 26 27  1  0
 26 28  2  0
 20 29  1  0
 29 30  2  0
 30 31  1  0
 31 32  2  0
 32 33  1  0
 33 34  2  0
 34 17  1  0
 32 19  1  0
 28 22  1  0
M  CHG  1   3   1
M  END
$$$$
CHEMBL460721_diffdock_10
     RDKit          3D

 34 36  0  0  0  0  0  0  0  0999 V2000
  -20.6359   18.8876  -23.7121 C   0  0  0  0  0  0  0  0  0  0  0  0
  -20.2921   18.6780  -22.2740 C   0  0  0  0  0  0  0  0  0  0  0  0
  -20.5399   17.3444  -21.8417 N   0  0  0  0  0  4  0  0  0  0  0  0
  -21.0892   17.2068  -20.5330 C   0  0  0  0  0  0  0  0  0  0  0  0
  -21.6634   15.8941  -20.1715 C   0  0  0  0  0  0  0  0  0  0  0  0
  -19.2895   16.6122  -21.8638 C   0  0  0  0  0  0  0  0  0  0  0  0
  -18.9596   16.0343  -23.2234 C   0  0  0  0  0  0  0  0  0  0  0  0
  -17.6766   15.2569  -23.2419 C   0  0  0  0  0  0  0  0  0  0  0  0
  -17.9588   13.8974  -23.6401 N   0  0  0  0  0  0  0  0  0  0  0  0
  -17.0520   13.0073  -24.2496 C   0  0  0  0  0  0  0  0  0  0  0  0
  -16.9330   11.8467  -23.7254 O   0  0  0  0  0  0  0  0  0  0  0  0
  -16.2556   13.3424  -25.4310 C   0  0  0  0  0  0  0  0  0  0  0  0
  -15.1399   12.7274  -25.7711 C   0  0  0  0  0  0  0  0  0  0  0  0
  -14.5499   12.9500  -27.1168 C   0  0  0  0  0  0  0  0  0  0  0  0
  -14.9573   13.8977  -27.8270 O   0  0  0  0  0  0  0  0  0  0  0  0
  -13.4842   12.0582  -27.6245 C   0  0  0  0  0  0  0  0  0  0  0  0
  -12.3987   12.8692  -28.1959 C   0  0  0  0  0  0  0  0  0  0  0  0
  -12.3757   14.2445  -27.9898 C   0  0  0  0  0  0  0  0  0  0  0  0
  -11.3825   15.0291  -28.5009 C   0  0  0  0  0  0  0  0  0  0  0  0
  -11.3395   16.4077  -28.3032 C   0  0  0  0  0  0  0  0  0  0  0  0
  -12.3212   17.0686  -27.5413 N   0  0  0  0  0  0  0  0  0  0  0  0
  -12.2968   18.4734  -27.2957 C   0  0  0  0  0  0  0  0  0  0  0  0
  -13.2696   19.1710  -26.6288 C   0  0  0  0  0  0  0  0  0  0  0  0
  -13.1608   20.5461  -26.4642 C   0  0  0  0  0  0  0  0  0  0  0  0
  -12.0856   21.2447  -26.9588 C   0  0  0  0  0  0  0  0  0  0  0  0
  -11.1163   20.5419  -27.6239 C   0  0  0  0  0  0  0  0  0  0  0  0
   -9.6126   21.5120  -28.3176 Br  0  0  0  0  0  0  0  0  0  0  0  0
  -11.2084   19.1886  -27.7946 C   0  0  0  0  0  0  0  0  0  0  0  0
  -10.2972   17.0479  -28.8665 N   0  0  0  0  0  0  0  0  0  0  0  0
   -9.3576   16.4136  -29.5720 C   0  0  0  0  0  0  0  0  0  0  0  0
   -9.3875   15.0853  -29.7696 N   0  0  0  0  0  0  0  0  0  0  0  0
  -10.3974   14.3753  -29.2384 C   0  0  0  0  0  0  0  0  0  0  0  0
  -10.4223   13.0124  -29.4414 C   0  0  0  0  0  0  0  0  0  0  0  0
  -11.4250   12.3096  -28.9107 N   0  0  0  0  0  0  0  0  0  0  0  0
  1  2  1  0
  3  2  1  0
  3  4  1  0
  4  5  1  0
  3  6  1  0
  6  7  1  0
  7  8  1  0
  8  9  1  0
  9 10  1  0
 10 11  2  0
 10 12  1  0
 12 13  2  0
 13 14  1  0
 14 15  2  0
 14 16  1  0
 16 17  1  0
 17 18  2  0
 18 19  1  0
 19 20  2  0
 20 21  1  0
 21 22  1  0
 22 23  2  0
 23 24  1  0
 24 25  2  0
 25 26  1  0
 26 27  1  0
 26 28  2  0
 20 29  1  0
 29 30  2  0
 30 31  1  0
 31 32  2  0
 32 33  1  0
 33 34  2  0
 34 17  1  0
 32 19  1  0
 28 22  1  0
M  CHG  1   3   1
M  END
$$$$
CHEMBL4776056_diffdock_1
     RDKit          3D

 27 30  0  0  0  0  0  0  0  0999 V2000
   -9.9901   18.9485  -28.2929 C   0  0  0  0  0  0  0  0  0  0  0  0
  -10.0009   17.5761  -28.9221 C   0  0  1  0  0  0  0  0  0  0  0  0
  -11.1815   16.8204  -28.4731 N   0  0  0  0  0  4  0  0  0  0  0  0
  -10.9972   15.4685  -28.8613 C   0  0  0  0  0  0  0  0  0  0  0  0
  -10.0235   15.0893  -29.7087 N   0  0  0  0  0  0  0  0  0  0  0  0
   -9.8641   13.8108  -30.0638 C   0  0  0  0  0  0  0  0  0  0  0  0
  -10.6789   12.8691  -29.5787 N   0  0  0  0  0  0  0  0  0  0  0  0
  -11.6785   13.1518  -28.7278 C   0  0  0  0  0  0  0  0  0  0  0  0
  -12.6298   12.4650  -28.0880 N   0  0  0  0  0  0  0  0  0  0  0  0
  -13.3977   13.2565  -27.3321 C   0  0  0  0  0  0  0  0  0  0  0  0
  -14.5274   12.8416  -26.5010 C   0  0  0  0  0  0  0  0  0  0  0  0
  -15.0520   11.5704  -26.5650 C   0  0  0  0  0  0  0  0  0  0  0  0
  -16.1189   11.2323  -25.7578 C   0  0  0  0  0  0  0  0  0  0  0  0
  -16.6759   12.1542  -24.8781 C   0  0  0  0  0  0  0  0  0  0  0  0
  -16.1557   13.4229  -24.8113 C   0  0  0  0  0  0  0  0  0  0  0  0
  -16.7159   14.4288  -23.8938 C   0  0  0  0  0  0  0  0  0  0  0  0
  -16.5759   15.8175  -24.1639 N   0  0  0  0  0  0  0  0  0  0  0  0
  -17.3309   14.1004  -22.8509 O   0  0  0  0  0  0  0  0  0  0  0  0
  -15.1027   13.7314  -25.6185 C   0  0  0  0  0  0  0  0  0  0  0  0
  -12.8993   14.5290  -27.5049 C   0  0  0  0  0  0  0  0  0  0  0  0
  -11.8262   14.4935  -28.3707 C   0  0  0  0  0  0  0  0  0  0  0  0
   -9.9382   17.6446  -30.4010 C   0  0  0  0  0  0  0  0  0  0  0  0
  -10.9708   17.1762  -31.1843 C   0  0  0  0  0  0  0  0  0  0  0  0
  -10.9239   17.2341  -32.5714 C   0  0  0  0  0  0  0  0  0  0  0  0
   -9.8275   17.7696  -33.2226 C   0  0  0  0  0  0  0  0  0  0  0  0
   -8.7960   18.2375  -32.4398 C   0  0  0  0  0  0  0  0  0  0  0  0
   -8.8509   18.1761  -31.0633 C   0  0  0  0  0  0  0  0  0  0  0  0
  2  1  1  1
  2  3  1  0
  3  4  1  0
  4  5  2  0
  5  6  1  0
  6  7  2  0
  7  8  1  0
  8  9  1  0
  9 10  1  0
 10 11  1  0
 11 12  2  0
 12 13  1  0
 13 14  2  0
 14 15  1  0
 15 16  1  0
 16 17  1  0
 16 18  2  0
 15 19  2  0
 10 20  2  0
 20 21  1  0
  2 22  1  0
 22 23  2  0
 23 24  1  0
 24 25  2  0
 25 26  1  0
 26 27  2  0
 21  4  1  0
 27 22  1  0
 21  8  2  0
 19 11  1  0
M  CHG  1   3   1
M  END
$$$$
CHEMBL4776056_diffdock_2
     RDKit          3D

 27 30  0  0  0  0  0  0  0  0999 V2000
  -16.5425   16.5167  -26.7303 C   0  0  0  0  0  0  0  0  0  0  0  0
  -15.1062   16.1052  -26.5125 C   0  0  1  0  0  0  0  0  0  0  0  0
  -14.3320   16.2871  -27.7509 N   0  0  0  0  0  4  0  0  0  0  0  0
  -13.6852   15.0572  -28.0359 C   0  0  0  0  0  0  0  0  0  0  0  0
  -14.2685   13.8670  -27.8052 N   0  0  0  0  0  0  0  0  0  0  0  0
  -13.6445   12.7175  -28.0797 C   0  0  0  0  0  0  0  0  0  0  0  0
  -12.4118   12.7253  -28.5959 N   0  0  0  0  0  0  0  0  0  0  0  0
  -11.7501   13.8635  -28.8600 C   0  0  0  0  0  0  0  0  0  0  0  0
  -10.5549   14.1964  -29.3567 N   0  0  0  0  0  0  0  0  0  0  0  0
  -10.3862   15.5216  -29.4122 C   0  0  0  0  0  0  0  0  0  0  0  0
   -9.2038   16.2316  -29.8992 C   0  0  0  0  0  0  0  0  0  0  0  0
   -8.2504   15.6134  -30.6764 C   0  0  0  0  0  0  0  0  0  0  0  0
   -7.1541   16.3311  -31.1089 C   0  0  0  0  0  0  0  0  0  0  0  0
   -6.9935   17.6712  -30.7734 C   0  0  0  0  0  0  0  0  0  0  0  0
   -7.9420   18.2913  -29.9985 C   0  0  0  0  0  0  0  0  0  0  0  0
   -7.8100   19.7081  -29.6209 C   0  0  0  0  0  0  0  0  0  0  0  0
   -8.8117   20.3495  -28.8422 N   0  0  0  0  0  0  0  0  0  0  0  0
   -6.8189   20.3939  -29.9690 O   0  0  0  0  0  0  0  0  0  0  0  0
   -9.0147   17.5608  -29.5845 C   0  0  0  0  0  0  0  0  0  0  0  0
  -11.5521   16.0635  -28.9177 C   0  0  0  0  0  0  0  0  0  0  0  0
  -12.4211   15.0519  -28.5653 C   0  0  0  0  0  0  0  0  0  0  0  0
  -14.4870   16.8340  -25.3806 C   0  0  0  0  0  0  0  0  0  0  0  0
  -14.5421   16.3407  -24.0950 C   0  0  0  0  0  0  0  0  0  0  0  0
  -13.9662   17.0145  -23.0254 C   0  0  0  0  0  0  0  0  0  0  0  0
  -13.3101   18.2172  -23.2147 C   0  0  0  0  0  0  0  0  0  0  0  0
  -13.2552   18.7098  -24.4992 C   0  0  0  0  0  0  0  0  0  0  0  0
  -13.8297   18.0343  -25.5553 C   0  0  0  0  0  0  0  0  0  0  0  0
  2  1  1  6
  2  3  1  0
  3  4  1  0
  4  5  2  0
  5  6  1  0
  6  7  2  0
  7  8  1  0
  8  9  1  0
  9 10  1  0
 10 11  1  0
 11 12  2  0
 12 13  1  0
 13 14  2  0
 14 15  1  0
 15 16  1  0
 16 17  1  0
 16 18  2  0
 15 19  2  0
 10 20  2  0
 20 21  1  0
  2 22  1  0
 22 23  2  0
 23 24  1  0
 24 25  2  0
 25 26  1  0
 26 27  2  0
 21  4  1  0
 27 22  1  0
 21  8  2  0
 19 11  1  0
M  CHG  1   3   1
M  END
$$$$
CHEMBL4776056_diffdock_3
     RDKit          3D

 27 30  0  0  0  0  0  0  0  0999 V2000
  -10.2178   18.7030  -28.0511 C   0  0  0  0  0  0  0  0  0  0  0  0
  -10.2469   17.3831  -28.7834 C   0  0  1  0  0  0  0  0  0  0  0  0
  -11.5326   16.7037  -28.5558 N   0  0  0  0  0  4  0  0  0  0  0  0
  -11.3757   15.3489  -28.9457 C   0  0  0  0  0  0  0  0  0  0  0  0
  -10.3562   14.9364  -29.7206 N   0  0  0  0  0  0  0  0  0  0  0  0
  -10.2236   13.6557  -30.0785 C   0  0  0  0  0  0  0  0  0  0  0  0
  -11.1120   12.7451  -29.6693 N   0  0  0  0  0  0  0  0  0  0  0  0
  -12.1616   13.0622  -28.8941 C   0  0  0  0  0  0  0  0  0  0  0  0
  -13.1873   12.4107  -28.3379 N   0  0  0  0  0  0  0  0  0  0  0  0
  -13.9775   13.2272  -27.6332 C   0  0  0  0  0  0  0  0  0  0  0  0
  -15.1844   12.8532  -26.8965 C   0  0  0  0  0  0  0  0  0  0  0  0
  -15.6502   11.5579  -26.8690 C   0  0  0  0  0  0  0  0  0  0  0  0
  -16.7946   11.2606  -26.1577 C   0  0  0  0  0  0  0  0  0  0  0  0
  -17.4886   12.2476  -25.4660 C   0  0  0  0  0  0  0  0  0  0  0  0
  -17.0274   13.5404  -25.4910 C   0  0  0  0  0  0  0  0  0  0  0  0
  -17.7322   14.6148  -24.7725 C   0  0  0  0  0  0  0  0  0  0  0  0
  -18.6801   14.3109  -23.7576 N   0  0  0  0  0  0  0  0  0  0  0  0
  -17.5240   15.8254  -25.0272 O   0  0  0  0  0  0  0  0  0  0  0  0
  -15.8956   13.8077  -26.2004 C   0  0  0  0  0  0  0  0  0  0  0  0
  -13.4144   14.4788  -27.7512 C   0  0  0  0  0  0  0  0  0  0  0  0
  -12.2801   14.4057  -28.5325 C   0  0  0  0  0  0  0  0  0  0  0  0
   -9.9754   17.5469  -30.2309 C   0  0  0  0  0  0  0  0  0  0  0  0
   -8.7544   17.9972  -30.6843 C   0  0  0  0  0  0  0  0  0  0  0  0
   -8.4876   18.1556  -32.0383 C   0  0  0  0  0  0  0  0  0  0  0  0
   -9.4482   17.8638  -32.9896 C   0  0  0  0  0  0  0  0  0  0  0  0
  -10.6679   17.4139  -32.5364 C   0  0  0  0  0  0  0  0  0  0  0  0
  -10.9243   17.2596  -31.1903 C   0  0  0  0  0  0  0  0  0  0  0  0
  2  1  1  1
  2  3  1  0
  3  4  1  0
  4  5  2  0
  5  6  1  0
  6  7  2  0
  7  8  1  0
  8  9  1  0
  9 10  1  0
 10 11  1  0
 11 12  2  0
 12 13  1  0
 13 14  2  0
 14 15  1  0
 15 16  1  0
 16 17  1  0
 16 18  2  0
 15 19  2  0
 10 20  2  0
 20 21  1  0
  2 22  1  0
 22 23  2  0
 23 24  1  0
 24 25  2  0
 25 26  1  0
 26 27  2  0
 21  4  1  0
 27 22  1  0
 21  8  2  0
 19 11  1  0
M  CHG  1   3   1
M  END
$$$$
CHEMBL4776056_diffdock_4
     RDKit          3D

 27 30  0  0  0  0  0  0  0  0999 V2000
  -11.2121   18.7675  -29.2063 C   0  0  0  0  0  0  0  0  0  0  0  0
  -12.0606   17.8645  -28.3437 C   0  0  1  0  0  0  0  0  0  0  0  0
  -11.2122   16.8872  -27.6425 N   0  0  0  0  0  4  0  0  0  0  0  0
  -11.2362   15.6835  -28.3927 C   0  0  0  0  0  0  0  0  0  0  0  0
  -10.3539   15.4309  -29.3764 N   0  0  0  0  0  0  0  0  0  0  0  0
  -10.3911   14.2911  -30.0733 C   0  0  0  0  0  0  0  0  0  0  0  0
  -11.3172   13.3658  -29.8049 N   0  0  0  0  0  0  0  0  0  0  0  0
  -12.2389   13.5290  -28.8421 C   0  0  0  0  0  0  0  0  0  0  0  0
  -13.2586   12.8213  -28.3469 N   0  0  0  0  0  0  0  0  0  0  0  0
  -13.8809   13.4653  -27.3541 C   0  0  0  0  0  0  0  0  0  0  0  0
  -15.0322   12.9867  -26.5894 C   0  0  0  0  0  0  0  0  0  0  0  0
  -15.6739   13.7792  -25.6645 C   0  0  0  0  0  0  0  0  0  0  0  0
  -16.7558   13.2768  -24.9708 C   0  0  0  0  0  0  0  0  0  0  0  0
  -17.2115   11.9811  -25.1889 C   0  0  0  0  0  0  0  0  0  0  0  0
  -16.5744   11.1876  -26.1104 C   0  0  0  0  0  0  0  0  0  0  0  0
  -17.0248    9.8106  -26.3713 C   0  0  0  0  0  0  0  0  0  0  0  0
  -17.9452    9.1687  -25.4985 N   0  0  0  0  0  0  0  0  0  0  0  0
  -16.6169    9.1601  -27.3635 O   0  0  0  0  0  0  0  0  0  0  0  0
  -15.5090   11.7073  -26.7818 C   0  0  0  0  0  0  0  0  0  0  0  0
  -13.2105   14.6601  -27.2114 C   0  0  0  0  0  0  0  0  0  0  0  0
  -12.1810   14.7269  -28.1270 C   0  0  0  0  0  0  0  0  0  0  0  0
  -12.8943   18.6332  -27.3899 C   0  0  0  0  0  0  0  0  0  0  0  0
  -12.3504   19.1974  -26.2563 C   0  0  0  0  0  0  0  0  0  0  0  0
  -13.1212   19.9198  -25.3542 C   0  0  0  0  0  0  0  0  0  0  0  0
  -14.4763   20.1003  -25.5640 C   0  0  0  0  0  0  0  0  0  0  0  0
  -15.0194   19.5365  -26.6966 C   0  0  0  0  0  0  0  0  0  0  0  0
  -14.2468   18.8209  -27.5868 C   0  0  0  0  0  0  0  0  0  0  0  0
  2  1  1  1
  2  3  1  0
  3  4  1  0
  4  5  2  0
  5  6  1  0
  6  7  2  0
  7  8  1  0
  8  9  1  0
  9 10  1  0
 10 11  1  0
 11 12  2  0
 12 13  1  0
 13 14  2  0
 14 15  1  0
 15 16  1  0
 16 17  1  0
 16 18  2  0
 15 19  2  0
 10 20  2  0
 20 21  1  0
  2 22  1  0
 22 23  2  0
 23 24  1  0
 24 25  2  0
 25 26  1  0
 26 27  2  0
 21  4  1  0
 27 22  1  0
 21  8  2  0
 19 11  1  0
M  CHG  1   3   1
M  END
$$$$
CHEMBL4776056_diffdock_5
     RDKit          3D

 27 30  0  0  0  0  0  0  0  0999 V2000
   -9.3603   19.0403  -28.5501 C   0  0  0  0  0  0  0  0  0  0  0  0
   -9.4846   17.6166  -29.0373 C   0  0  1  0  0  0  0  0  0  0  0  0
  -10.6599   16.9721  -28.4293 N   0  0  0  0  0  4  0  0  0  0  0  0
  -10.6320   15.6012  -28.7926 C   0  0  0  0  0  0  0  0  0  0  0  0
   -9.7114   15.0986  -29.6351 N   0  0  0  0  0  0  0  0  0  0  0  0
   -9.6998   13.8040  -29.9668 C   0  0  0  0  0  0  0  0  0  0  0  0
  -10.6141   12.9699  -29.4623 N   0  0  0  0  0  0  0  0  0  0  0  0
  -11.5713   13.3797  -28.6144 C   0  0  0  0  0  0  0  0  0  0  0  0
  -12.5915   12.8171  -27.9598 N   0  0  0  0  0  0  0  0  0  0  0  0
  -13.2612   13.7044  -27.2169 C   0  0  0  0  0  0  0  0  0  0  0  0
  -14.4271   13.4357  -26.3756 C   0  0  0  0  0  0  0  0  0  0  0  0
  -14.9827   14.4029  -25.5686 C   0  0  0  0  0  0  0  0  0  0  0  0
  -16.0829   14.0949  -24.7949 C   0  0  0  0  0  0  0  0  0  0  0  0
  -16.6429   12.8220  -24.8148 C   0  0  0  0  0  0  0  0  0  0  0  0
  -16.0918   11.8547  -25.6182 C   0  0  0  0  0  0  0  0  0  0  0  0
  -16.6538   10.4950  -25.6686 C   0  0  0  0  0  0  0  0  0  0  0  0
  -17.8294   10.1664  -24.9399 N   0  0  0  0  0  0  0  0  0  0  0  0
  -16.1211    9.5861  -26.3497 O   0  0  0  0  0  0  0  0  0  0  0  0
  -15.0062   12.1843  -26.3722 C   0  0  0  0  0  0  0  0  0  0  0  0
  -12.6224   14.9087  -27.4145 C   0  0  0  0  0  0  0  0  0  0  0  0
  -11.5641   14.7358  -28.2821 C   0  0  0  0  0  0  0  0  0  0  0  0
   -9.5356   17.5400  -30.5162 C   0  0  0  0  0  0  0  0  0  0  0  0
   -8.4021   17.7081  -31.2818 C   0  0  0  0  0  0  0  0  0  0  0  0
   -8.4368   17.6391  -32.6688 C   0  0  0  0  0  0  0  0  0  0  0  0
   -9.6227   17.3968  -33.3377 C   0  0  0  0  0  0  0  0  0  0  0  0
  -10.7550   17.2289  -32.5726 C   0  0  0  0  0  0  0  0  0  0  0  0
  -10.7116   17.2989  -31.1961 C   0  0  0  0  0  0  0  0  0  0  0  0
  2  1  1  6
  2  3  1  0
  3  4  1  0
  4  5  2  0
  5  6  1  0
  6  7  2  0
  7  8  1  0
  8  9  1  0
  9 10  1  0
 10 11  1  0
 11 12  2  0
 12 13  1  0
 13 14  2  0
 14 15  1  0
 15 16  1  0
 16 17  1  0
 16 18  2  0
 15 19  2  0
 10 20  2  0
 20 21  1  0
  2 22  1  0
 22 23  2  0
 23 24  1  0
 24 25  2  0
 25 26  1  0
 26 27  2  0
 21  4  1  0
 27 22  1  0
 21  8  2  0
 19 11  1  0
M  CHG  1   3   1
M  END
$$$$
CHEMBL4776056_diffdock_6
     RDKit          3D

 27 30  0  0  0  0  0  0  0  0999 V2000
  -10.2864   18.7966  -27.9497 C   0  0  0  0  0  0  0  0  0  0  0  0
  -11.6011   18.0849  -27.7382 C   0  0  1  0  0  0  0  0  0  0  0  0
  -11.4105   16.9132  -26.8681 N   0  0  0  0  0  4  0  0  0  0  0  0
  -11.3462   15.7671  -27.7016 C   0  0  0  0  0  0  0  0  0  0  0  0
  -10.3498   15.5746  -28.5848 N   0  0  0  0  0  0  0  0  0  0  0  0
  -10.3047   14.4887  -29.3626 C   0  0  0  0  0  0  0  0  0  0  0  0
  -11.2607   13.5586  -29.2789 N   0  0  0  0  0  0  0  0  0  0  0  0
  -12.2940   13.6639  -28.4277 C   0  0  0  0  0  0  0  0  0  0  0  0
  -13.3701   12.9357  -28.1153 N   0  0  0  0  0  0  0  0  0  0  0  0
  -14.1081   13.5144  -27.1624 C   0  0  0  0  0  0  0  0  0  0  0  0
  -15.3472   12.9970  -26.5827 C   0  0  0  0  0  0  0  0  0  0  0  0
  -16.0565   13.6975  -25.6332 C   0  0  0  0  0  0  0  0  0  0  0  0
  -17.2199   13.1621  -25.1196 C   0  0  0  0  0  0  0  0  0  0  0  0
  -17.6910   11.9243  -25.5442 C   0  0  0  0  0  0  0  0  0  0  0  0
  -16.9866   11.2226  -26.4907 C   0  0  0  0  0  0  0  0  0  0  0  0
  -17.4504    9.9092  -26.9673 C   0  0  0  0  0  0  0  0  0  0  0  0
  -18.7577    9.4436  -26.6586 N   0  0  0  0  0  0  0  0  0  0  0  0
  -16.7163    9.1607  -27.6563 O   0  0  0  0  0  0  0  0  0  0  0  0
  -15.8413   11.7731  -26.9818 C   0  0  0  0  0  0  0  0  0  0  0  0
  -13.4557   14.6870  -26.8510 C   0  0  0  0  0  0  0  0  0  0  0  0
  -12.3204   14.8063  -27.6253 C   0  0  0  0  0  0  0  0  0  0  0  0
  -12.6407   18.9917  -27.1971 C   0  0  0  0  0  0  0  0  0  0  0  0
  -12.7614   19.2158  -25.8427 C   0  0  0  0  0  0  0  0  0  0  0  0
  -13.7320   20.0629  -25.3230 C   0  0  0  0  0  0  0  0  0  0  0  0
  -14.6212   20.7183  -26.1552 C   0  0  0  0  0  0  0  0  0  0  0  0
  -14.5004   20.4942  -27.5082 C   0  0  0  0  0  0  0  0  0  0  0  0
  -13.5339   19.6516  -28.0157 C   0  0  0  0  0  0  0  0  0  0  0  0
  2  1  1  1
  2  3  1  0
  3  4  1  0
  4  5  2  0
  5  6  1  0
  6  7  2  0
  7  8  1  0
  8  9  1  0
  9 10  1  0
 10 11  1  0
 11 12  2  0
 12 13  1  0
 13 14  2  0
 14 15  1  0
 15 16  1  0
 16 17  1  0
 16 18  2  0
 15 19  2  0
 10 20  2  0
 20 21  1  0
  2 22  1  0
 22 23  2  0
 23 24  1  0
 24 25  2  0
 25 26  1  0
 26 27  2  0
 21  4  1  0
 27 22  1  0
 21  8  2  0
 19 11  1  0
M  CHG  1   3   1
M  END
$$$$
CHEMBL4776056_diffdock_7
     RDKit          3D

 27 30  0  0  0  0  0  0  0  0999 V2000
  -10.1546   18.9124  -27.1225 C   0  0  0  0  0  0  0  0  0  0  0  0
  -10.2102   17.7665  -28.1041 C   0  0  1  0  0  0  0  0  0  0  0  0
  -11.4518   16.9982  -27.9188 N   0  0  0  0  0  4  0  0  0  0  0  0
  -11.2446   15.7094  -28.4740 C   0  0  0  0  0  0  0  0  0  0  0  0
  -10.2309   15.4438  -29.3177 N   0  0  0  0  0  0  0  0  0  0  0  0
  -10.0503   14.2235  -29.8317 C   0  0  0  0  0  0  0  0  0  0  0  0
  -10.8834   13.2277  -29.5147 N   0  0  0  0  0  0  0  0  0  0  0  0
  -11.9227   13.3973  -28.6815 C   0  0  0  0  0  0  0  0  0  0  0  0
  -12.9002   12.6339  -28.1839 N   0  0  0  0  0  0  0  0  0  0  0  0
  -13.7056   13.3198  -27.3663 C   0  0  0  0  0  0  0  0  0  0  0  0
  -14.8714   12.8010  -26.6516 C   0  0  0  0  0  0  0  0  0  0  0  0
  -15.3195   11.5111  -26.8262 C   0  0  0  0  0  0  0  0  0  0  0  0
  -16.4251   11.0734  -26.1260 C   0  0  0  0  0  0  0  0  0  0  0  0
  -17.0973   11.9132  -25.2445 C   0  0  0  0  0  0  0  0  0  0  0  0
  -16.6536   13.2003  -25.0676 C   0  0  0  0  0  0  0  0  0  0  0  0
  -17.3363   14.1215  -24.1443 C   0  0  0  0  0  0  0  0  0  0  0  0
  -17.1241   15.5247  -24.2278 N   0  0  0  0  0  0  0  0  0  0  0  0
  -18.1223   13.7059  -23.2592 O   0  0  0  0  0  0  0  0  0  0  0  0
  -15.5602   13.6078  -25.7706 C   0  0  0  0  0  0  0  0  0  0  0  0
  -13.2044   14.6028  -27.3450 C   0  0  0  0  0  0  0  0  0  0  0  0
  -12.0919   14.6800  -28.1567 C   0  0  0  0  0  0  0  0  0  0  0  0
  -10.0698   18.2299  -29.5045 C   0  0  0  0  0  0  0  0  0  0  0  0
  -10.9632   19.1219  -30.0569 C   0  0  0  0  0  0  0  0  0  0  0  0
  -10.8429   19.5635  -31.3685 C   0  0  0  0  0  0  0  0  0  0  0  0
   -9.8112   19.1187  -32.1751 C   0  0  0  0  0  0  0  0  0  0  0  0
   -8.9188   18.2275  -31.6230 C   0  0  0  0  0  0  0  0  0  0  0  0
   -9.0457   17.7944  -30.3200 C   0  0  0  0  0  0  0  0  0  0  0  0
  2  1  1  1
  2  3  1  0
  3  4  1  0
  4  5  2  0
  5  6  1  0
  6  7  2  0
  7  8  1  0
  8  9  1  0
  9 10  1  0
 10 11  1  0
 11 12  2  0
 12 13  1  0
 13 14  2  0
 14 15  1  0
 15 16  1  0
 16 17  1  0
 16 18  2  0
 15 19  2  0
 10 20  2  0
 20 21  1  0
  2 22  1  0
 22 23  2  0
 23 24  1  0
 24 25  2  0
 25 26  1  0
 26 27  2  0
 21  4  1  0
 27 22  1  0
 21  8  2  0
 19 11  1  0
M  CHG  1   3   1
M  END
$$$$
CHEMBL4776056_diffdock_8
     RDKit          3D

 27 30  0  0  0  0  0  0  0  0999 V2000
  -16.0263   16.9972  -27.3130 C   0  0  0  0  0  0  0  0  0  0  0  0
  -14.7060   16.3687  -26.9371 C   0  0  1  0  0  0  0  0  0  0  0  0
  -13.7789   16.4120  -28.0795 N   0  0  0  0  0  4  0  0  0  0  0  0
  -13.1245   15.1552  -28.1474 C   0  0  0  0  0  0  0  0  0  0  0  0
  -13.7264   14.0096  -27.7799 N   0  0  0  0  0  0  0  0  0  0  0  0
  -13.0948   12.8339  -27.8503 C   0  0  0  0  0  0  0  0  0  0  0  0
  -11.8355   12.7698  -28.2931 N   0  0  0  0  0  0  0  0  0  0  0  0
  -11.1537   13.8593  -28.6819 C   0  0  0  0  0  0  0  0  0  0  0  0
   -9.9310   14.1198  -29.1545 N   0  0  0  0  0  0  0  0  0  0  0  0
   -9.7519   15.4233  -29.3915 C   0  0  0  0  0  0  0  0  0  0  0  0
   -8.5405   16.0582  -29.9098 C   0  0  0  0  0  0  0  0  0  0  0  0
   -7.4622   15.3231  -30.3483 C   0  0  0  0  0  0  0  0  0  0  0  0
   -6.3439   15.9739  -30.8279 C   0  0  0  0  0  0  0  0  0  0  0  0
   -6.2853   17.3625  -30.8767 C   0  0  0  0  0  0  0  0  0  0  0  0
   -7.3584   18.0992  -30.4404 C   0  0  0  0  0  0  0  0  0  0  0  0
   -7.3371   19.5708  -30.4750 C   0  0  0  0  0  0  0  0  0  0  0  0
   -6.2606   20.2683  -31.0878 N   0  0  0  0  0  0  0  0  0  0  0  0
   -8.2589   20.2558  -29.9701 O   0  0  0  0  0  0  0  0  0  0  0  0
   -8.4502   17.4327  -29.9717 C   0  0  0  0  0  0  0  0  0  0  0  0
  -10.9402   16.0283  -29.0459 C   0  0  0  0  0  0  0  0  0  0  0  0
  -11.8331   15.0764  -28.5997 C   0  0  0  0  0  0  0  0  0  0  0  0
  -14.1109   17.0055  -25.7387 C   0  0  0  0  0  0  0  0  0  0  0  0
  -13.8762   18.3626  -25.6906 C   0  0  0  0  0  0  0  0  0  0  0  0
  -13.3185   18.9714  -24.5735 C   0  0  0  0  0  0  0  0  0  0  0  0
  -12.9753   18.2293  -23.4580 C   0  0  0  0  0  0  0  0  0  0  0  0
  -13.2099   16.8735  -23.5064 C   0  0  0  0  0  0  0  0  0  0  0  0
  -13.7639   16.2773  -24.6195 C   0  0  0  0  0  0  0  0  0  0  0  0
  2  1  1  6
  2  3  1  0
  3  4  1  0
  4  5  2  0
  5  6  1  0
  6  7  2  0
  7  8  1  0
  8  9  1  0
  9 10  1  0
 10 11  1  0
 11 12  2  0
 12 13  1  0
 13 14  2  0
 14 15  1  0
 15 16  1  0
 16 17  1  0
 16 18  2  0
 15 19  2  0
 10 20  2  0
 20 21  1  0
  2 22  1  0
 22 23  2  0
 23 24  1  0
 24 25  2  0
 25 26  1  0
 26 27  2  0
 21  4  1  0
 27 22  1  0
 21  8  2  0
 19 11  1  0
M  CHG  1   3   1
M  END
$$$$
CHEMBL4776056_diffdock_9
     RDKit          3D

 27 30  0  0  0  0  0  0  0  0999 V2000
  -16.2174   17.4141  -27.3183 C   0  0  0  0  0  0  0  0  0  0  0  0
  -15.0233   16.6573  -26.7885 C   0  0  1  0  0  0  0  0  0  0  0  0
  -13.8091   17.0429  -27.5258 N   0  0  0  0  0  4  0  0  0  0  0  0
  -13.1885   15.8513  -27.9812 C   0  0  0  0  0  0  0  0  0  0  0  0
  -13.6923   14.6318  -27.7187 N   0  0  0  0  0  0  0  0  0  0  0  0
  -13.0945   13.5193  -28.1557 C   0  0  0  0  0  0  0  0  0  0  0  0
  -11.9688   13.5949  -28.8721 N   0  0  0  0  0  0  0  0  0  0  0  0
  -11.3921   14.7669  -29.1836 C   0  0  0  0  0  0  0  0  0  0  0  0
  -10.3087   15.1649  -29.8572 N   0  0  0  0  0  0  0  0  0  0  0  0
  -10.1868   16.4963  -29.8699 C   0  0  0  0  0  0  0  0  0  0  0  0
   -9.1243   17.2698  -30.5117 C   0  0  0  0  0  0  0  0  0  0  0  0
   -9.1897   18.6397  -30.6313 C   0  0  0  0  0  0  0  0  0  0  0  0
   -8.1585   19.3198  -31.2462 C   0  0  0  0  0  0  0  0  0  0  0  0
   -7.0509   18.6455  -31.7491 C   0  0  0  0  0  0  0  0  0  0  0  0
   -6.9819   17.2794  -31.6319 C   0  0  0  0  0  0  0  0  0  0  0  0
   -5.8274   16.5276  -32.1506 C   0  0  0  0  0  0  0  0  0  0  0  0
   -4.7176   17.2045  -32.7260 N   0  0  0  0  0  0  0  0  0  0  0  0
   -5.7815   15.2747  -32.1042 O   0  0  0  0  0  0  0  0  0  0  0  0
   -8.0128   16.6318  -31.0207 C   0  0  0  0  0  0  0  0  0  0  0  0
  -11.2648   16.9727  -29.1569 C   0  0  0  0  0  0  0  0  0  0  0  0
  -12.0339   15.9157  -28.7167 C   0  0  0  0  0  0  0  0  0  0  0  0
  -14.8489   16.8494  -25.3296 C   0  0  0  0  0  0  0  0  0  0  0  0
  -14.2247   17.9692  -24.8240 C   0  0  0  0  0  0  0  0  0  0  0  0
  -14.0545   18.1607  -23.4587 C   0  0  0  0  0  0  0  0  0  0  0  0
  -14.5104   17.2244  -22.5486 C   0  0  0  0  0  0  0  0  0  0  0  0
  -15.1340   16.1058  -23.0539 C   0  0  0  0  0  0  0  0  0  0  0  0
  -15.2987   15.9236  -24.4109 C   0  0  0  0  0  0  0  0  0  0  0  0
  2  1  1  6
  2  3  1  0
  3  4  1  0
  4  5  2  0
  5  6  1  0
  6  7  2  0
  7  8  1  0
  8  9  1  0
  9 10  1  0
 10 11  1  0
 11 12  2  0
 12 13  1  0
 13 14  2  0
 14 15  1  0
 15 16  1  0
 16 17  1  0
 16 18  2  0
 15 19  2  0
 10 20  2  0
 20 21  1  0
  2 22  1  0
 22 23  2  0
 23 24  1  0
 24 25  2  0
 25 26  1  0
 26 27  2  0
 21  4  1  0
 27 22  1  0
 21  8  2  0
 19 11  1  0
M  CHG  1   3   1
M  END
$$$$
CHEMBL4776056_diffdock_10
     RDKit          3D

 27 30  0  0  0  0  0  0  0  0999 V2000
  -13.0215   18.6465  -26.5441 C   0  0  0  0  0  0  0  0  0  0  0  0
  -12.0751   17.6231  -27.1243 C   0  0  1  0  0  0  0  0  0  0  0  0
  -12.6616   17.0137  -28.3289 N   0  0  0  0  0  4  0  0  0  0  0  0
  -12.1332   15.7025  -28.4457 C   0  0  0  0  0  0  0  0  0  0  0  0
  -10.9701   15.4484  -29.0722 N   0  0  0  0  0  0  0  0  0  0  0  0
  -10.4869   14.2065  -29.1730 C   0  0  0  0  0  0  0  0  0  0  0  0
  -11.1570   13.1768  -28.6470 N   0  0  0  0  0  0  0  0  0  0  0  0
  -12.3254   13.3325  -28.0038 C   0  0  0  0  0  0  0  0  0  0  0  0
  -13.2072   12.5375  -27.3903 N   0  0  0  0  0  0  0  0  0  0  0  0
  -14.2431   13.2239  -26.8969 C   0  0  0  0  0  0  0  0  0  0  0  0
  -15.3868   12.6752  -26.1688 C   0  0  0  0  0  0  0  0  0  0  0  0
  -16.1647   13.4521  -25.3401 C   0  0  0  0  0  0  0  0  0  0  0  0
  -17.2325   12.8827  -24.6770 C   0  0  0  0  0  0  0  0  0  0  0  0
  -17.5387   11.5348  -24.8305 C   0  0  0  0  0  0  0  0  0  0  0  0
  -16.7655   10.7567  -25.6560 C   0  0  0  0  0  0  0  0  0  0  0  0
  -17.0553    9.3259  -25.8461 C   0  0  0  0  0  0  0  0  0  0  0  0
  -18.0852    8.6874  -25.1027 N   0  0  0  0  0  0  0  0  0  0  0  0
  -16.4105    8.6252  -26.6628 O   0  0  0  0  0  0  0  0  0  0  0  0
  -15.7173   11.3429  -26.2990 C   0  0  0  0  0  0  0  0  0  0  0  0
  -14.0008   14.5409  -27.2196 C   0  0  0  0  0  0  0  0  0  0  0  0
  -12.8110   14.6382  -27.9105 C   0  0  0  0  0  0  0  0  0  0  0  0
  -10.7415   18.2020  -27.4107 C   0  0  0  0  0  0  0  0  0  0  0  0
   -9.5943   17.6581  -26.8747 C   0  0  0  0  0  0  0  0  0  0  0  0
   -8.3385   18.1917  -27.1351 C   0  0  0  0  0  0  0  0  0  0  0  0
   -8.1933   19.2996  -27.9502 C   0  0  0  0  0  0  0  0  0  0  0  0
   -9.3396   19.8428  -28.4855 C   0  0  0  0  0  0  0  0  0  0  0  0
  -10.5823   19.3066  -28.2218 C   0  0  0  0  0  0  0  0  0  0  0  0
  2  1  1  6
  2  3  1  0
  3  4  1  0
  4  5  2  0
  5  6  1  0
  6  7  2  0
  7  8  1  0
  8  9  1  0
  9 10  1  0
 10 11  1  0
 11 12  2  0
 12 13  1  0
 13 14  2  0
 14 15  1  0
 15 16  1  0
 16 17  1  0
 16 18  2  0
 15 19  2  0
 10 20  2  0
 20 21  1  0
  2 22  1  0
 22 23  2  0
 23 24  1  0
 24 25  2  0
 25 26  1  0
 26 27  2  0
 21  4  1  0
 27 22  1  0
 21  8  2  0
 19 11  1  0
M  CHG  1   3   1
M  END
$$$$
CHEMBL2425736_diffdock_1
     RDKit          3D

 28 31  0  0  0  0  0  0  0  0999 V2000
   -8.6383   17.9763  -32.9299 Br  0  0  0  0  0  0  0  0  0  0  0  0
   -9.2405   18.3949  -31.1526 C   0  0  0  0  0  0  0  0  0  0  0  0
   -8.8482   19.5627  -30.5315 C   0  0  0  0  0  0  0  0  0  0  0  0
   -9.2742   19.8643  -29.2699 C   0  0  0  0  0  0  0  0  0  0  0  0
  -10.1103   18.9839  -28.6106 C   0  0  0  0  0  0  0  0  0  0  0  0
  -10.5374   17.8088  -29.1670 C   0  0  0  0  0  0  0  0  0  0  0  0
  -11.3893   16.8464  -28.5230 N   0  0  0  0  0  0  0  0  0  0  0  0
  -11.3310   15.5026  -28.9273 C   0  0  0  0  0  0  0  0  0  0  0  0
  -10.4725   15.0485  -29.8579 N   0  0  0  0  0  0  0  0  0  0  0  0
  -10.4197   13.7626  -30.2373 C   0  0  0  0  0  0  0  0  0  0  0  0
  -11.2544   12.8539  -29.6782 N   0  0  0  0  0  0  0  0  0  0  0  0
  -12.1331   13.2262  -28.7494 C   0  0  0  0  0  0  0  0  0  0  0  0
  -13.0007   12.3173  -28.1579 C   0  0  0  0  0  0  0  0  0  0  0  0
  -13.9012   12.7273  -27.1971 C   0  0  0  0  0  0  0  0  0  0  0  0
  -13.9860   14.0338  -26.7805 C   0  0  0  0  0  0  0  0  0  0  0  0
  -14.8668   14.5190  -25.7889 N   0  0  0  0  0  0  0  0  0  0  0  0
  -14.8341   15.8797  -25.3503 C   0  0  0  0  0  0  0  0  0  0  0  0
  -15.8151   16.2422  -24.2890 C   0  0  0  0  0  0  0  0  0  0  0  0
  -15.6589   17.6822  -23.8297 C   0  0  0  0  0  0  0  0  0  0  0  0
  -16.6348   18.0069  -22.8042 N   0  0  0  0  0  0  0  0  0  0  0  0
  -16.6905   17.0527  -21.7571 C   0  0  0  0  0  0  0  0  0  0  0  0
  -16.0819   17.4465  -20.4568 C   0  0  0  0  0  0  0  0  0  0  0  0
  -16.4614   18.8031  -19.9641 C   0  0  0  0  0  0  0  0  0  0  0  0
  -17.0406   19.6872  -21.0347 C   0  0  0  0  0  0  0  0  0  0  0  0
  -16.5043   19.3807  -22.3965 C   0  0  0  0  0  0  0  0  0  0  0  0
  -13.0932   14.9318  -27.3994 C   0  0  0  0  0  0  0  0  0  0  0  0
  -12.1840   14.5701  -28.3569 C   0  0  0  0  0  0  0  0  0  0  0  0
  -10.0712   17.5468  -30.4641 C   0  0  0  0  0  0  0  0  0  0  0  0
  1  2  1  0
  2  3  2  0
  3  4  1  0
  4  5  2  0
  5  6  1  0
  6  7  1  0
  7  8  1  0
  8  9  2  0
  9 10  1  0
 10 11  2  0
 11 12  1  0
 12 13  2  0
 13 14  1  0
 14 15  2  0
 15 16  1  0
 16 17  1  0
 17 18  1  0
 18 19  1  0
 19 20  1  0
 20 21  1  0
 21 22  1  0
 22 23  1  0
 23 24  1  0
 24 25  1  0
 15 26  1  0
 26 27  2  0
  6 28  2  0
 28  2  1  0
 27  8  1  0
 27 12  1  0
 25 20  1  0
M  END
$$$$
CHEMBL2425736_diffdock_2
     RDKit          3D

 28 31  0  0  0  0  0  0  0  0999 V2000
   -8.3028   17.3090  -33.5125 Br  0  0  0  0  0  0  0  0  0  0  0  0
   -8.6294   17.8412  -31.6940 C   0  0  0  0  0  0  0  0  0  0  0  0
   -7.9506   18.9058  -31.1377 C   0  0  0  0  0  0  0  0  0  0  0  0
   -8.1802   19.2878  -29.8472 C   0  0  0  0  0  0  0  0  0  0  0  0
   -9.1067   18.5947  -29.0922 C   0  0  0  0  0  0  0  0  0  0  0  0
   -9.8143   17.5301  -29.5805 C   0  0  0  0  0  0  0  0  0  0  0  0
  -10.7743   16.7599  -28.8375 N   0  0  0  0  0  0  0  0  0  0  0  0
  -10.7616   15.3599  -28.9489 C   0  0  0  0  0  0  0  0  0  0  0  0
   -9.7913   14.6788  -29.5844 N   0  0  0  0  0  0  0  0  0  0  0  0
   -9.7833   13.3409  -29.6844 C   0  0  0  0  0  0  0  0  0  0  0  0
  -10.7823   12.6118  -29.1317 N   0  0  0  0  0  0  0  0  0  0  0  0
  -11.7793   13.2136  -28.4856 C   0  0  0  0  0  0  0  0  0  0  0  0
  -12.8165   12.4927  -27.9083 C   0  0  0  0  0  0  0  0  0  0  0  0
  -13.8374   13.1390  -27.2433 C   0  0  0  0  0  0  0  0  0  0  0  0
  -13.8816   14.5065  -27.1179 C   0  0  0  0  0  0  0  0  0  0  0  0
  -14.8822   15.2317  -26.4343 N   0  0  0  0  0  0  0  0  0  0  0  0
  -15.0700   15.1115  -25.0217 C   0  0  0  0  0  0  0  0  0  0  0  0
  -15.5790   16.3289  -24.3298 C   0  0  0  0  0  0  0  0  0  0  0  0
  -16.0795   16.0259  -22.9274 C   0  0  0  0  0  0  0  0  0  0  0  0
  -16.8143   17.1551  -22.3850 N   0  0  0  0  0  0  0  0  0  0  0  0
  -17.8162   16.7809  -21.4543 C   0  0  0  0  0  0  0  0  0  0  0  0
  -17.5301   17.0449  -20.0174 C   0  0  0  0  0  0  0  0  0  0  0  0
  -17.0034   18.4082  -19.7158 C   0  0  0  0  0  0  0  0  0  0  0  0
  -16.4654   19.1220  -20.9259 C   0  0  0  0  0  0  0  0  0  0  0  0
  -15.9105   18.1888  -21.9541 C   0  0  0  0  0  0  0  0  0  0  0  0
  -12.8157   15.2097  -27.7146 C   0  0  0  0  0  0  0  0  0  0  0  0
  -11.7827   14.6108  -28.3842 C   0  0  0  0  0  0  0  0  0  0  0  0
   -9.5412   17.1787  -30.9110 C   0  0  0  0  0  0  0  0  0  0  0  0
  1  2  1  0
  2  3  2  0
  3  4  1  0
  4  5  2  0
  5  6  1  0
  6  7  1  0
  7  8  1  0
  8  9  2  0
  9 10  1  0
 10 11  2  0
 11 12  1  0
 12 13  2  0
 13 14  1  0
 14 15  2  0
 15 16  1  0
 16 17  1  0
 17 18  1  0
 18 19  1  0
 19 20  1  0
 20 21  1  0
 21 22  1  0
 22 23  1  0
 23 24  1  0
 24 25  1  0
 15 26  1  0
 26 27  2  0
  6 28  2  0
 28  2  1  0
 27  8  1  0
 27 12  1  0
 25 20  1  0
M  END
$$$$
CHEMBL2425736_diffdock_3
     RDKit          3D

 28 31  0  0  0  0  0  0  0  0999 V2000
   -9.3343   17.9596  -33.9693 Br  0  0  0  0  0  0  0  0  0  0  0  0
   -9.6115   18.4931  -32.1430 C   0  0  0  0  0  0  0  0  0  0  0  0
   -8.9301   19.5683  -31.6110 C   0  0  0  0  0  0  0  0  0  0  0  0
   -9.1245   19.9512  -30.3150 C   0  0  0  0  0  0  0  0  0  0  0  0
  -10.0179   19.2483  -29.5297 C   0  0  0  0  0  0  0  0  0  0  0  0
  -10.7260   18.1728  -29.9930 C   0  0  0  0  0  0  0  0  0  0  0  0
  -11.6521   17.3923  -29.2184 N   0  0  0  0  0  0  0  0  0  0  0  0
  -11.5562   15.9914  -29.2459 C   0  0  0  0  0  0  0  0  0  0  0  0
  -10.6162   15.3296  -29.9441 N   0  0  0  0  0  0  0  0  0  0  0  0
  -10.5280   13.9909  -29.9635 C   0  0  0  0  0  0  0  0  0  0  0  0
  -11.4093   13.2411  -29.2591 N   0  0  0  0  0  0  0  0  0  0  0  0
  -12.3692   13.8231  -28.5426 C   0  0  0  0  0  0  0  0  0  0  0  0
  -13.2863   13.0809  -27.8100 C   0  0  0  0  0  0  0  0  0  0  0  0
  -14.2708   13.7070  -27.0746 C   0  0  0  0  0  0  0  0  0  0  0  0
  -14.3943   15.0745  -27.0277 C   0  0  0  0  0  0  0  0  0  0  0  0
  -15.3621   15.7818  -26.2809 N   0  0  0  0  0  0  0  0  0  0  0  0
  -15.0371   16.9739  -25.5609 C   0  0  0  0  0  0  0  0  0  0  0  0
  -15.2343   16.9137  -24.0853 C   0  0  0  0  0  0  0  0  0  0  0  0
  -16.4204   17.7471  -23.6295 C   0  0  0  0  0  0  0  0  0  0  0  0
  -16.0079   18.7477  -22.6611 N   0  0  0  0  0  0  0  0  0  0  0  0
  -15.8120   20.0327  -23.2272 C   0  0  0  0  0  0  0  0  0  0  0  0
  -16.8552   21.0567  -22.9454 C   0  0  0  0  0  0  0  0  0  0  0  0
  -17.2721   21.1606  -21.5163 C   0  0  0  0  0  0  0  0  0  0  0  0
  -16.8889   19.9608  -20.6934 C   0  0  0  0  0  0  0  0  0  0  0  0
  -16.8447   18.6970  -21.4915 C   0  0  0  0  0  0  0  0  0  0  0  0
  -13.4497   15.7997  -27.7817 C   0  0  0  0  0  0  0  0  0  0  0  0
  -12.4568   15.2212  -28.5259 C   0  0  0  0  0  0  0  0  0  0  0  0
  -10.4897   17.8210  -31.3303 C   0  0  0  0  0  0  0  0  0  0  0  0
  1  2  1  0
  2  3  2  0
  3  4  1  0
  4  5  2  0
  5  6  1  0
  6  7  1  0
  7  8  1  0
  8  9  2  0
  9 10  1  0
 10 11  2  0
 11 12  1  0
 12 13  2  0
 13 14  1  0
 14 15  2  0
 15 16  1  0
 16 17  1  0
 17 18  1  0
 18 19  1  0
 19 20  1  0
 20 21  1  0
 21 22  1  0
 22 23  1  0
 23 24  1  0
 24 25  1  0
 15 26  1  0
 26 27  2  0
  6 28  2  0
 28  2  1  0
 27  8  1  0
 27 12  1  0
 25 20  1  0
M  END
$$$$
CHEMBL2425736_diffdock_4
     RDKit          3D

 28 31  0  0  0  0  0  0  0  0999 V2000
   -9.1473   17.9246  -32.8224 Br  0  0  0  0  0  0  0  0  0  0  0  0
   -9.3392   18.2436  -30.9361 C   0  0  0  0  0  0  0  0  0  0  0  0
   -8.5712   19.1970  -30.3001 C   0  0  0  0  0  0  0  0  0  0  0  0
   -8.7049   19.4274  -28.9610 C   0  0  0  0  0  0  0  0  0  0  0  0
   -9.6242   18.6924  -28.2375 C   0  0  0  0  0  0  0  0  0  0  0  0
  -10.4171   17.7320  -28.8044 C   0  0  0  0  0  0  0  0  0  0  0  0
  -11.3748   16.9236  -28.1000 N   0  0  0  0  0  0  0  0  0  0  0  0
  -11.5524   15.5841  -28.4828 C   0  0  0  0  0  0  0  0  0  0  0  0
  -10.7603   14.9594  -29.3724 N   0  0  0  0  0  0  0  0  0  0  0  0
  -10.9335   13.6783  -29.7314 C   0  0  0  0  0  0  0  0  0  0  0  0
  -11.9418   12.9516  -29.1927 N   0  0  0  0  0  0  0  0  0  0  0  0
  -12.7690   13.4995  -28.3044 C   0  0  0  0  0  0  0  0  0  0  0  0
  -13.8109   12.7794  -27.7348 C   0  0  0  0  0  0  0  0  0  0  0  0
  -14.6535   13.3690  -26.8159 C   0  0  0  0  0  0  0  0  0  0  0  0
  -14.5094   14.6771  -26.4213 C   0  0  0  0  0  0  0  0  0  0  0  0
  -15.3199   15.3376  -25.4719 N   0  0  0  0  0  0  0  0  0  0  0  0
  -14.7868   16.3133  -24.5724 C   0  0  0  0  0  0  0  0  0  0  0  0
  -15.5890   17.5594  -24.4186 C   0  0  0  0  0  0  0  0  0  0  0  0
  -15.0018   18.4958  -23.3758 C   0  0  0  0  0  0  0  0  0  0  0  0
  -15.9013   19.6049  -23.1113 N   0  0  0  0  0  0  0  0  0  0  0  0
  -15.2486   20.8629  -23.0723 C   0  0  0  0  0  0  0  0  0  0  0  0
  -15.4502   21.7605  -24.2427 C   0  0  0  0  0  0  0  0  0  0  0  0
  -16.8654   21.9067  -24.6932 C   0  0  0  0  0  0  0  0  0  0  0  0
  -17.7728   20.8253  -24.1731 C   0  0  0  0  0  0  0  0  0  0  0  0
  -17.0651   19.5264  -23.9539 C   0  0  0  0  0  0  0  0  0  0  0  0
  -13.4437   15.3813  -27.0173 C   0  0  0  0  0  0  0  0  0  0  0  0
  -12.5837   14.8376  -27.9332 C   0  0  0  0  0  0  0  0  0  0  0  0
  -10.2406   17.5347  -30.1822 C   0  0  0  0  0  0  0  0  0  0  0  0
  1  2  1  0
  2  3  2  0
  3  4  1  0
  4  5  2  0
  5  6  1  0
  6  7  1  0
  7  8  1  0
  8  9  2  0
  9 10  1  0
 10 11  2  0
 11 12  1  0
 12 13  2  0
 13 14  1  0
 14 15  2  0
 15 16  1  0
 16 17  1  0
 17 18  1  0
 18 19  1  0
 19 20  1  0
 20 21  1  0
 21 22  1  0
 22 23  1  0
 23 24  1  0
 24 25  1  0
 15 26  1  0
 26 27  2  0
  6 28  2  0
 28  2  1  0
 27  8  1  0
 27 12  1  0
 25 20  1  0
M  END
$$$$
CHEMBL2425736_diffdock_5
     RDKit          3D

 28 31  0  0  0  0  0  0  0  0999 V2000
   -8.3032   18.4347  -32.5155 Br  0  0  0  0  0  0  0  0  0  0  0  0
   -9.2075   18.8373  -30.8672 C   0  0  0  0  0  0  0  0  0  0  0  0
   -8.9629   20.0191  -30.1986 C   0  0  0  0  0  0  0  0  0  0  0  0
   -9.6035   20.3094  -29.0285 C   0  0  0  0  0  0  0  0  0  0  0  0
  -10.5089   19.4031  -28.5110 C   0  0  0  0  0  0  0  0  0  0  0  0
  -10.7983   18.2130  -29.1215 C   0  0  0  0  0  0  0  0  0  0  0  0
  -11.7140   17.2242  -28.6211 N   0  0  0  0  0  0  0  0  0  0  0  0
  -11.4850   15.8697  -28.9136 C   0  0  0  0  0  0  0  0  0  0  0  0
  -10.4482   15.4398  -29.6548 N   0  0  0  0  0  0  0  0  0  0  0  0
  -10.2332   14.1439  -29.9278 C   0  0  0  0  0  0  0  0  0  0  0  0
  -11.0789   13.1991  -29.4510 N   0  0  0  0  0  0  0  0  0  0  0  0
  -12.1289   13.5458  -28.7089 C   0  0  0  0  0  0  0  0  0  0  0  0
  -13.0125   12.5998  -28.2056 C   0  0  0  0  0  0  0  0  0  0  0  0
  -14.0922   12.9839  -27.4384 C   0  0  0  0  0  0  0  0  0  0  0  0
  -14.3466   14.2996  -27.1355 C   0  0  0  0  0  0  0  0  0  0  0  0
  -15.4181   14.7619  -26.3400 N   0  0  0  0  0  0  0  0  0  0  0  0
  -15.3598   16.0117  -25.6474 C   0  0  0  0  0  0  0  0  0  0  0  0
  -15.6551   15.9580  -24.1880 C   0  0  0  0  0  0  0  0  0  0  0  0
  -15.1713   17.1996  -23.4577 C   0  0  0  0  0  0  0  0  0  0  0  0
  -15.9522   17.4297  -22.2550 N   0  0  0  0  0  0  0  0  0  0  0  0
  -15.2081   17.2634  -21.0596 C   0  0  0  0  0  0  0  0  0  0  0  0
  -14.8269   18.5026  -20.3281 C   0  0  0  0  0  0  0  0  0  0  0  0
  -15.9287   19.4912  -20.1383 C   0  0  0  0  0  0  0  0  0  0  0  0
  -17.0975   19.2671  -21.0586 C   0  0  0  0  0  0  0  0  0  0  0  0
  -16.7024   18.6528  -22.3634 C   0  0  0  0  0  0  0  0  0  0  0  0
  -13.4329   15.2354  -27.6609 C   0  0  0  0  0  0  0  0  0  0  0  0
  -12.3487   14.9004  -28.4269 C   0  0  0  0  0  0  0  0  0  0  0  0
  -10.1135   17.9635  -30.3203 C   0  0  0  0  0  0  0  0  0  0  0  0
  1  2  1  0
  2  3  2  0
  3  4  1  0
  4  5  2  0
  5  6  1  0
  6  7  1  0
  7  8  1  0
  8  9  2  0
  9 10  1  0
 10 11  2  0
 11 12  1  0
 12 13  2  0
 13 14  1  0
 14 15  2  0
 15 16  1  0
 16 17  1  0
 17 18  1  0
 18 19  1  0
 19 20  1  0
 20 21  1  0
 21 22  1  0
 22 23  1  0
 23 24  1  0
 24 25  1  0
 15 26  1  0
 26 27  2  0
  6 28  2  0
 28  2  1  0
 27  8  1  0
 27 12  1  0
 25 20  1  0
M  END
$$$$
CHEMBL2425736_diffdock_6
     RDKit          3D

 28 31  0  0  0  0  0  0  0  0999 V2000
   -6.9831   17.5306  -31.3705 Br  0  0  0  0  0  0  0  0  0  0  0  0
   -8.3931   18.3290  -30.3354 C   0  0  0  0  0  0  0  0  0  0  0  0
   -8.5145   19.7006  -30.2483 C   0  0  0  0  0  0  0  0  0  0  0  0
   -9.5147   20.2717  -29.5152 C   0  0  0  0  0  0  0  0  0  0  0  0
  -10.4154   19.4597  -28.8533 C   0  0  0  0  0  0  0  0  0  0  0  0
  -10.3531   18.0934  -28.8965 C   0  0  0  0  0  0  0  0  0  0  0  0
  -11.2482   17.1992  -28.2138 N   0  0  0  0  0  0  0  0  0  0  0  0
  -11.3095   15.8547  -28.6149 C   0  0  0  0  0  0  0  0  0  0  0  0
  -10.4607   15.3106  -29.5052 N   0  0  0  0  0  0  0  0  0  0  0  0
  -10.5227   14.0243  -29.8817 C   0  0  0  0  0  0  0  0  0  0  0  0
  -11.4706   13.2084  -29.3612 N   0  0  0  0  0  0  0  0  0  0  0  0
  -12.3478   13.6731  -28.4735 C   0  0  0  0  0  0  0  0  0  0  0  0
  -13.3299   12.8605  -27.9222 C   0  0  0  0  0  0  0  0  0  0  0  0
  -14.2263   13.3651  -27.0036 C   0  0  0  0  0  0  0  0  0  0  0  0
  -14.1958   14.6754  -26.5914 C   0  0  0  0  0  0  0  0  0  0  0  0
  -15.0664   15.2528  -25.6410 N   0  0  0  0  0  0  0  0  0  0  0  0
  -14.7184   16.4380  -24.9204 C   0  0  0  0  0  0  0  0  0  0  0  0
  -15.5976   17.6185  -25.1516 C   0  0  0  0  0  0  0  0  0  0  0  0
  -15.6460   18.5437  -23.9472 C   0  0  0  0  0  0  0  0  0  0  0  0
  -16.2351   19.8232  -24.3009 N   0  0  0  0  0  0  0  0  0  0  0  0
  -17.2389   20.2509  -23.3956 C   0  0  0  0  0  0  0  0  0  0  0  0
  -16.8765   21.3534  -22.4632 C   0  0  0  0  0  0  0  0  0  0  0  0
  -16.1953   22.5208  -23.0960 C   0  0  0  0  0  0  0  0  0  0  0  0
  -15.6253   22.2156  -24.4544 C   0  0  0  0  0  0  0  0  0  0  0  0
  -15.2106   20.7868  -24.6047 C   0  0  0  0  0  0  0  0  0  0  0  0
  -13.1885   15.4744  -27.1690 C   0  0  0  0  0  0  0  0  0  0  0  0
  -12.2786   15.0170  -28.0839 C   0  0  0  0  0  0  0  0  0  0  0  0
   -9.3075   17.5575  -29.6632 C   0  0  0  0  0  0  0  0  0  0  0  0
  1  2  1  0
  2  3  2  0
  3  4  1  0
  4  5  2  0
  5  6  1  0
  6  7  1  0
  7  8  1  0
  8  9  2  0
  9 10  1  0
 10 11  2  0
 11 12  1  0
 12 13  2  0
 13 14  1  0
 14 15  2  0
 15 16  1  0
 16 17  1  0
 17 18  1  0
 18 19  1  0
 19 20  1  0
 20 21  1  0
 21 22  1  0
 22 23  1  0
 23 24  1  0
 24 25  1  0
 15 26  1  0
 26 27  2  0
  6 28  2  0
 28  2  1  0
 27  8  1  0
 27 12  1  0
 25 20  1  0
M  END
$$$$
CHEMBL2425736_diffdock_7
     RDKit          3D

 28 31  0  0  0  0  0  0  0  0999 V2000
   -9.7595   17.9696  -33.9950 Br  0  0  0  0  0  0  0  0  0  0  0  0
  -10.0340   18.5629  -32.1868 C   0  0  0  0  0  0  0  0  0  0  0  0
   -9.4823   19.7463  -31.7412 C   0  0  0  0  0  0  0  0  0  0  0  0
   -9.6755   20.1719  -30.4584 C   0  0  0  0  0  0  0  0  0  0  0  0
  -10.4353   19.4023  -29.5985 C   0  0  0  0  0  0  0  0  0  0  0  0
  -11.0107   18.2190  -29.9743 C   0  0  0  0  0  0  0  0  0  0  0  0
  -11.7930   17.3678  -29.1198 N   0  0  0  0  0  0  0  0  0  0  0  0
  -11.5844   15.9795  -29.1610 C   0  0  0  0  0  0  0  0  0  0  0  0
  -10.6061   15.4012  -29.8805 N   0  0  0  0  0  0  0  0  0  0  0  0
  -10.4100   14.0743  -29.9129 C   0  0  0  0  0  0  0  0  0  0  0  0
  -11.2154   13.2504  -29.2004 N   0  0  0  0  0  0  0  0  0  0  0  0
  -12.2068   13.7473  -28.4631 C   0  0  0  0  0  0  0  0  0  0  0  0
  -13.0480   12.9278  -27.7218 C   0  0  0  0  0  0  0  0  0  0  0  0
  -14.0671   13.4666  -26.9648 C   0  0  0  0  0  0  0  0  0  0  0  0
  -14.3002   14.8192  -26.9041 C   0  0  0  0  0  0  0  0  0  0  0  0
  -15.3091   15.4402  -26.1352 N   0  0  0  0  0  0  0  0  0  0  0  0
  -15.0682   16.6470  -25.4068 C   0  0  0  0  0  0  0  0  0  0  0  0
  -15.3020   16.5743  -23.9371 C   0  0  0  0  0  0  0  0  0  0  0  0
  -16.5836   17.2784  -23.5236 C   0  0  0  0  0  0  0  0  0  0  0  0
  -16.6032   17.5183  -22.0914 N   0  0  0  0  0  0  0  0  0  0  0  0
  -15.3994   18.0818  -21.5979 C   0  0  0  0  0  0  0  0  0  0  0  0
  -15.4333   19.5251  -21.2346 C   0  0  0  0  0  0  0  0  0  0  0  0
  -16.5991   19.9421  -20.4015 C   0  0  0  0  0  0  0  0  0  0  0  0
  -17.7328   18.9533  -20.4229 C   0  0  0  0  0  0  0  0  0  0  0  0
  -17.8160   18.1900  -21.7060 C   0  0  0  0  0  0  0  0  0  0  0  0
  -13.4306   15.6241  -27.6673 C   0  0  0  0  0  0  0  0  0  0  0  0
  -12.4071   15.1335  -28.4328 C   0  0  0  0  0  0  0  0  0  0  0  0
  -10.7819   17.8274  -31.3019 C   0  0  0  0  0  0  0  0  0  0  0  0
  1  2  1  0
  2  3  2  0
  3  4  1  0
  4  5  2  0
  5  6  1  0
  6  7  1  0
  7  8  1  0
  8  9  2  0
  9 10  1  0
 10 11  2  0
 11 12  1  0
 12 13  2  0
 13 14  1  0
 14 15  2  0
 15 16  1  0
 16 17  1  0
 17 18  1  0
 18 19  1  0
 19 20  1  0
 20 21  1  0
 21 22  1  0
 22 23  1  0
 23 24  1  0
 24 25  1  0
 15 26  1  0
 26 27  2  0
  6 28  2  0
 28  2  1  0
 27  8  1  0
 27 12  1  0
 25 20  1  0
M  END
$$$$
CHEMBL2425736_diffdock_8
     RDKit          3D

 28 31  0  0  0  0  0  0  0  0999 V2000
   -9.0934   17.9337  -33.1130 Br  0  0  0  0  0  0  0  0  0  0  0  0
   -9.4177   18.4280  -31.2834 C   0  0  0  0  0  0  0  0  0  0  0  0
   -8.9356   19.6178  -30.7780 C   0  0  0  0  0  0  0  0  0  0  0  0
   -9.1644   19.9732  -29.4798 C   0  0  0  0  0  0  0  0  0  0  0  0
   -9.8899   19.1254  -28.6651 C   0  0  0  0  0  0  0  0  0  0  0  0
  -10.3964   17.9312  -29.1010 C   0  0  0  0  0  0  0  0  0  0  0  0
  -11.1398   17.0009  -28.2956 N   0  0  0  0  0  0  0  0  0  0  0  0
  -11.0834   15.6319  -28.6040 C   0  0  0  0  0  0  0  0  0  0  0  0
  -10.1883   15.1040  -29.4579 N   0  0  0  0  0  0  0  0  0  0  0  0
  -10.1376   13.7945  -29.7458 C   0  0  0  0  0  0  0  0  0  0  0  0
  -11.0127   12.9369  -29.1679 N   0  0  0  0  0  0  0  0  0  0  0  0
  -11.9292   13.3833  -28.3111 C   0  0  0  0  0  0  0  0  0  0  0  0
  -12.8388   12.5283  -27.7026 C   0  0  0  0  0  0  0  0  0  0  0  0
  -13.7780   13.0147  -26.8176 C   0  0  0  0  0  0  0  0  0  0  0  0
  -13.8622   14.3477  -26.4957 C   0  0  0  0  0  0  0  0  0  0  0  0
  -14.7821   14.9111  -25.5841 N   0  0  0  0  0  0  0  0  0  0  0  0
  -14.5793   16.2046  -25.0091 C   0  0  0  0  0  0  0  0  0  0  0  0
  -15.8115   17.0068  -24.7679 C   0  0  0  0  0  0  0  0  0  0  0  0
  -15.5374   18.2419  -23.9262 C   0  0  0  0  0  0  0  0  0  0  0  0
  -16.6640   18.5371  -23.0585 N   0  0  0  0  0  0  0  0  0  0  0  0
  -16.4576   18.1417  -21.7127 C   0  0  0  0  0  0  0  0  0  0  0  0
  -16.1857   19.2253  -20.7287 C   0  0  0  0  0  0  0  0  0  0  0  0
  -17.1061   20.3974  -20.8058 C   0  0  0  0  0  0  0  0  0  0  0  0
  -17.8657   20.4763  -22.1020 C   0  0  0  0  0  0  0  0  0  0  0  0
  -17.1145   19.8897  -23.2542 C   0  0  0  0  0  0  0  0  0  0  0  0
  -12.9263   15.1898  -27.1296 C   0  0  0  0  0  0  0  0  0  0  0  0
  -11.9777   14.7516  -28.0141 C   0  0  0  0  0  0  0  0  0  0  0  0
  -10.1334   17.6137  -30.4420 C   0  0  0  0  0  0  0  0  0  0  0  0
  1  2  1  0
  2  3  2  0
  3  4  1  0
  4  5  2  0
  5  6  1  0
  6  7  1  0
  7  8  1  0
  8  9  2  0
  9 10  1  0
 10 11  2  0
 11 12  1  0
 12 13  2  0
 13 14  1  0
 14 15  2  0
 15 16  1  0
 16 17  1  0
 17 18  1  0
 18 19  1  0
 19 20  1  0
 20 21  1  0
 21 22  1  0
 22 23  1  0
 23 24  1  0
 24 25  1  0
 15 26  1  0
 26 27  2  0
  6 28  2  0
 28  2  1  0
 27  8  1  0
 27 12  1  0
 25 20  1  0
M  END
$$$$
CHEMBL2425736_diffdock_9
     RDKit          3D

 28 31  0  0  0  0  0  0  0  0999 V2000
   -8.2616   18.0003  -31.8840 Br  0  0  0  0  0  0  0  0  0  0  0  0
   -9.4798   18.6148  -30.5293 C   0  0  0  0  0  0  0  0  0  0  0  0
   -9.4438   19.9217  -30.0885 C   0  0  0  0  0  0  0  0  0  0  0  0
  -10.3076   20.3625  -29.1275 C   0  0  0  0  0  0  0  0  0  0  0  0
  -11.2290   19.4830  -28.5924 C   0  0  0  0  0  0  0  0  0  0  0  0
  -11.3190   18.1745  -28.9830 C   0  0  0  0  0  0  0  0  0  0  0  0
  -12.2417   17.2101  -28.4490 N   0  0  0  0  0  0  0  0  0  0  0  0
  -12.0821   15.8546  -28.7800 C   0  0  0  0  0  0  0  0  0  0  0  0
  -11.1186   15.4044  -29.6035 N   0  0  0  0  0  0  0  0  0  0  0  0
  -10.9695   14.1075  -29.9131 C   0  0  0  0  0  0  0  0  0  0  0  0
  -11.8099   13.1826  -29.3902 N   0  0  0  0  0  0  0  0  0  0  0  0
  -12.7895   13.5500  -28.5663 C   0  0  0  0  0  0  0  0  0  0  0  0
  -13.6658   12.6247  -28.0143 C   0  0  0  0  0  0  0  0  0  0  0  0
  -14.6718   13.0299  -27.1624 C   0  0  0  0  0  0  0  0  0  0  0  0
  -14.8573   14.3474  -26.8198 C   0  0  0  0  0  0  0  0  0  0  0  0
  -15.8503   14.8301  -25.9391 N   0  0  0  0  0  0  0  0  0  0  0  0
  -15.8080   16.1571  -25.4079 C   0  0  0  0  0  0  0  0  0  0  0  0
  -16.5062   16.3567  -24.1068 C   0  0  0  0  0  0  0  0  0  0  0  0
  -17.5359   17.4723  -24.1724 C   0  0  0  0  0  0  0  0  0  0  0  0
  -18.0218   17.8065  -22.8452 N   0  0  0  0  0  0  0  0  0  0  0  0
  -18.8580   18.9512  -22.8231 C   0  0  0  0  0  0  0  0  0  0  0  0
  -20.3167   18.7138  -22.6439 C   0  0  0  0  0  0  0  0  0  0  0  0
  -20.6751   17.7691  -21.5456 C   0  0  0  0  0  0  0  0  0  0  0  0
  -19.5230   16.9139  -21.0934 C   0  0  0  0  0  0  0  0  0  0  0  0
  -18.5391   16.6373  -22.1849 C   0  0  0  0  0  0  0  0  0  0  0  0
  -13.9529   15.2620  -27.3963 C   0  0  0  0  0  0  0  0  0  0  0  0
  -12.9407   14.9055  -28.2464 C   0  0  0  0  0  0  0  0  0  0  0  0
  -10.4094   17.7726  -29.9726 C   0  0  0  0  0  0  0  0  0  0  0  0
  1  2  1  0
  2  3  2  0
  3  4  1  0
  4  5  2  0
  5  6  1  0
  6  7  1  0
  7  8  1  0
  8  9  2  0
  9 10  1  0
 10 11  2  0
 11 12  1  0
 12 13  2  0
 13 14  1  0
 14 15  2  0
 15 16  1  0
 16 17  1  0
 17 18  1  0
 18 19  1  0
 19 20  1  0
 20 21  1  0
 21 22  1  0
 22 23  1  0
 23 24  1  0
 24 25  1  0
 15 26  1  0
 26 27  2  0
  6 28  2  0
 28  2  1  0
 27  8  1  0
 27 12  1  0
 25 20  1  0
M  END
$$$$
CHEMBL2425736_diffdock_10
     RDKit          3D

 28 31  0  0  0  0  0  0  0  0999 V2000
  -81.9192  -59.0231    0.0568 Br  0  0  0  0  0  0  0  0  0  0  0  0
  -80.0835  -59.4326   -0.3429 C   0  0  0  0  0  0  0  0  0  0  0  0
  -79.4340  -58.8116   -1.3897 C   0  0  0  0  0  0  0  0  0  0  0  0
  -78.1303  -59.0986   -1.6764 C   0  0  0  0  0  0  0  0  0  0  0  0
  -77.4568  -60.0250   -0.9037 C   0  0  0  0  0  0  0  0  0  0  0  0
  -78.0401  -60.6778    0.1481 C   0  0  0  0  0  0  0  0  0  0  0  0
  -77.3968  -61.6638    0.9731 N   0  0  0  0  0  0  0  0  0  0  0  0
  -78.1871  -62.5273    1.7492 C   0  0  0  0  0  0  0  0  0  0  0  0
  -78.0958  -63.8678    1.6863 N   0  0  0  0  0  0  0  0  0  0  0  0
  -78.8517  -64.6872    2.4330 C   0  0  0  0  0  0  0  0  0  0  0  0
  -79.7577  -64.1749    3.2999 N   0  0  0  0  0  0  0  0  0  0  0  0
  -79.9071  -62.8569    3.4196 C   0  0  0  0  0  0  0  0  0  0  0  0
  -80.8269  -62.3026    4.3001 C   0  0  0  0  0  0  0  0  0  0  0  0
  -80.9622  -60.9343    4.4068 C   0  0  0  0  0  0  0  0  0  0  0  0
  -80.2070  -60.0616    3.6613 C   0  0  0  0  0  0  0  0  0  0  0  0
  -80.2772  -58.6530    3.7342 N   0  0  0  0  0  0  0  0  0  0  0  0
  -79.5605  -57.8132    2.8253 C   0  0  0  0  0  0  0  0  0  0  0  0
  -80.3136  -57.3756    1.6165 C   0  0  0  0  0  0  0  0  0  0  0  0
  -79.8783  -56.0018    1.1343 C   0  0  0  0  0  0  0  0  0  0  0  0
  -80.8328  -54.9849    1.5393 N   0  0  0  0  0  0  0  0  0  0  0  0
  -81.5937  -54.4652    0.4619 C   0  0  0  0  0  0  0  0  0  0  0  0
  -83.0124  -54.9063    0.3675 C   0  0  0  0  0  0  0  0  0  0  0  0
  -83.7823  -54.8433    1.6444 C   0  0  0  0  0  0  0  0  0  0  0  0
  -82.9080  -54.7505    2.8652 C   0  0  0  0  0  0  0  0  0  0  0  0
  -81.5841  -55.4222    2.6861 C   0  0  0  0  0  0  0  0  0  0  0  0
  -79.2834  -60.6544    2.7769 C   0  0  0  0  0  0  0  0  0  0  0  0
  -79.1153  -62.0060    2.6375 C   0  0  0  0  0  0  0  0  0  0  0  0
  -79.3798  -60.3468    0.4004 C   0  0  0  0  0  0  0  0  0  0  0  0
  1  2  1  0
  2  3  2  0
  3  4  1  0
  4  5  2  0
  5  6  1  0
  6  7  1  0
  7  8  1  0
  8  9  2  0
  9 10  1  0
 10 11  2  0
 11 12  1  0
 12 13  2  0
 13 14  1  0
 14 15  2  0
 15 16  1  0
 16 17  1  0
 17 18  1  0
 18 19  1  0
 19 20  1  0
 20 21  1  0
 21 22  1  0
 22 23  1  0
 23 24  1  0
 24 25  1  0
 15 26  1  0
 26 27  2  0
  6 28  2  0
 28  2  1  0
 27  8  1  0
 27 12  1  0
 25 20  1  0
M  END
$$$$
CHEMBL3814211_diffdock_1
     RDKit          3D

 23 25  0  0  0  0  0  0  0  0999 V2000
  -15.7155   17.4373  -24.3307 N   0  0  0  0  0  0  0  0  0  0  0  0
  -15.0410   16.8421  -25.4238 C   0  0  0  0  0  0  0  0  0  0  0  0
  -14.2750   17.5379  -26.1308 O   0  0  0  0  0  0  0  0  0  0  0  0
  -15.1994   15.4717  -25.7557 N   0  0  0  0  0  0  0  0  0  0  0  0
  -14.2805   14.8128  -26.6116 C   0  0  0  0  0  0  0  0  0  0  0  0
  -14.2701   13.4402  -26.6852 C   0  0  0  0  0  0  0  0  0  0  0  0
  -13.3742   12.8065  -27.5197 C   0  0  0  0  0  0  0  0  0  0  0  0
  -12.4688   13.4911  -28.3011 C   0  0  0  0  0  0  0  0  0  0  0  0
  -11.6010   12.8594  -29.1126 N   0  0  0  0  0  0  0  0  0  0  0  0
  -10.7153   13.5099  -29.8799 C   0  0  0  0  0  0  0  0  0  0  0  0
  -10.7080   14.8392  -29.8236 N   0  0  0  0  0  0  0  0  0  0  0  0
  -11.5554   15.5613  -29.0262 C   0  0  0  0  0  0  0  0  0  0  0  0
  -11.5026   16.9675  -29.0077 N   0  0  0  0  0  0  0  0  0  0  0  0
  -10.6506   17.7782  -29.8266 C   0  0  0  0  0  0  0  0  0  0  0  0
   -9.9495   18.8646  -29.3741 C   0  0  0  0  0  0  0  0  0  0  0  0
   -9.1680   19.5896  -30.2619 C   0  0  0  0  0  0  0  0  0  0  0  0
   -9.0597   19.2703  -31.5855 C   0  0  0  0  0  0  0  0  0  0  0  0
   -8.2851   20.0087  -32.4102 F   0  0  0  0  0  0  0  0  0  0  0  0
   -9.7569   18.1842  -32.0486 C   0  0  0  0  0  0  0  0  0  0  0  0
   -9.6200   17.7680  -33.7518 Cl  0  0  0  0  0  0  0  0  0  0  0  0
  -10.5306   17.4624  -31.1829 C   0  0  0  0  0  0  0  0  0  0  0  0
  -12.4659   14.8902  -28.2380 C   0  0  0  0  0  0  0  0  0  0  0  0
  -13.3601   15.5162  -27.4055 C   0  0  0  0  0  0  0  0  0  0  0  0
  1  2  1  0
  2  3  2  0
  2  4  1  0
  4  5  1  0
  5  6  2  0
  6  7  1  0
  7  8  2  0
  8  9  1  0
  9 10  2  0
 10 11  1  0
 11 12  2  0
 12 13  1  0
 13 14  1  0
 14 15  2  0
 15 16  1  0
 16 17  2  0
 17 18  1  0
 17 19  1  0
 19 20  1  0
 19 21  2  0
 12 22  1  0
 22 23  2  0
 23  5  1  0
 22  8  1  0
 21 14  1  0
M  END
$$$$
CHEMBL3814211_diffdock_2
     RDKit          3D

 23 25  0  0  0  0  0  0  0  0999 V2000
  -15.6660   17.3203  -23.8075 N   0  0  0  0  0  0  0  0  0  0  0  0
  -14.9391   16.7298  -24.8692 C   0  0  0  0  0  0  0  0  0  0  0  0
  -14.2062   17.4463  -25.5904 O   0  0  0  0  0  0  0  0  0  0  0  0
  -15.0080   15.3414  -25.1535 N   0  0  0  0  0  0  0  0  0  0  0  0
  -14.0964   14.7299  -26.0514 C   0  0  0  0  0  0  0  0  0  0  0  0
  -14.0613   13.3610  -26.1716 C   0  0  0  0  0  0  0  0  0  0  0  0
  -13.1727   12.7735  -27.0467 C   0  0  0  0  0  0  0  0  0  0  0  0
  -12.2988   13.5017  -27.8244 C   0  0  0  0  0  0  0  0  0  0  0  0
  -11.4377   12.9150  -28.6759 N   0  0  0  0  0  0  0  0  0  0  0  0
  -10.5825   13.6082  -29.4402 C   0  0  0  0  0  0  0  0  0  0  0  0
  -10.5995   14.9348  -29.3393 N   0  0  0  0  0  0  0  0  0  0  0  0
  -11.4422   15.6128  -28.4993 C   0  0  0  0  0  0  0  0  0  0  0  0
  -11.4161   17.0184  -28.4345 N   0  0  0  0  0  0  0  0  0  0  0  0
  -10.6721   17.8772  -29.3078 C   0  0  0  0  0  0  0  0  0  0  0  0
   -9.9628   18.9736  -28.8936 C   0  0  0  0  0  0  0  0  0  0  0  0
   -9.2930   19.7461  -29.8312 C   0  0  0  0  0  0  0  0  0  0  0  0
   -9.3042   19.4649  -31.1677 C   0  0  0  0  0  0  0  0  0  0  0  0
   -8.6356   20.2490  -32.0414 F   0  0  0  0  0  0  0  0  0  0  0  0
  -10.0106   18.3691  -31.5928 C   0  0  0  0  0  0  0  0  0  0  0  0
  -10.0272   18.0018  -33.3125 Cl  0  0  0  0  0  0  0  0  0  0  0  0
  -10.6748   17.6005  -30.6779 C   0  0  0  0  0  0  0  0  0  0  0  0
  -12.3214   14.8978  -27.7142 C   0  0  0  0  0  0  0  0  0  0  0  0
  -13.2082   15.4776  -26.8414 C   0  0  0  0  0  0  0  0  0  0  0  0
  1  2  1  0
  2  3  2  0
  2  4  1  0
  4  5  1  0
  5  6  2  0
  6  7  1  0
  7  8  2  0
  8  9  1  0
  9 10  2  0
 10 11  1  0
 11 12  2  0
 12 13  1  0
 13 14  1  0
 14 15  2  0
 15 16  1  0
 16 17  2  0
 17 18  1  0
 17 19  1  0
 19 20  1  0
 19 21  2  0
 12 22  1  0
 22 23  2  0
 23  5  1  0
 22  8  1  0
 21 14  1  0
M  END
$$$$
CHEMBL3814211_diffdock_3
     RDKit          3D

 23 25  0  0  0  0  0  0  0  0999 V2000
  -15.7468   17.7946  -24.5116 N   0  0  0  0  0  0  0  0  0  0  0  0
  -14.9988   17.0773  -25.4761 C   0  0  0  0  0  0  0  0  0  0  0  0
  -14.2780   17.7019  -26.2891 O   0  0  0  0  0  0  0  0  0  0  0  0
  -15.0330   15.6614  -25.5606 N   0  0  0  0  0  0  0  0  0  0  0  0
  -14.1791   14.9583  -26.4481 C   0  0  0  0  0  0  0  0  0  0  0  0
  -14.2538   13.5885  -26.5355 C   0  0  0  0  0  0  0  0  0  0  0  0
  -13.4208   12.9116  -27.4007 C   0  0  0  0  0  0  0  0  0  0  0  0
  -12.4970   13.5493  -28.1999 C   0  0  0  0  0  0  0  0  0  0  0  0
  -11.6913   12.8759  -29.0414 N   0  0  0  0  0  0  0  0  0  0  0  0
  -10.7889   13.4806  -29.8263 C   0  0  0  0  0  0  0  0  0  0  0  0
  -10.6996   14.8063  -29.7572 N   0  0  0  0  0  0  0  0  0  0  0  0
  -11.4798   15.5689  -28.9295 C   0  0  0  0  0  0  0  0  0  0  0  0
  -11.3415   16.9692  -28.8986 N   0  0  0  0  0  0  0  0  0  0  0  0
  -10.4623   17.7362  -29.7307 C   0  0  0  0  0  0  0  0  0  0  0  0
   -9.6622   18.7525  -29.2794 C   0  0  0  0  0  0  0  0  0  0  0  0
   -8.8626   19.4414  -30.1796 C   0  0  0  0  0  0  0  0  0  0  0  0
   -8.8310   19.1535  -31.5144 C   0  0  0  0  0  0  0  0  0  0  0  0
   -8.0347   19.8544  -32.3509 F   0  0  0  0  0  0  0  0  0  0  0  0
   -9.6276   18.1374  -31.9764 C   0  0  0  0  0  0  0  0  0  0  0  0
   -9.5899   17.7616  -33.6939 Cl  0  0  0  0  0  0  0  0  0  0  0  0
  -10.4201   17.4516  -31.0985 C   0  0  0  0  0  0  0  0  0  0  0  0
  -12.4077   14.9450  -28.1232 C   0  0  0  0  0  0  0  0  0  0  0  0
  -13.2396   15.6140  -27.2601 C   0  0  0  0  0  0  0  0  0  0  0  0
  1  2  1  0
  2  3  2  0
  2  4  1  0
  4  5  1  0
  5  6  2  0
  6  7  1  0
  7  8  2  0
  8  9  1  0
  9 10  2  0
 10 11  1  0
 11 12  2  0
 12 13  1  0
 13 14  1  0
 14 15  2  0
 15 16  1  0
 16 17  2  0
 17 18  1  0
 17 19  1  0
 19 20  1  0
 19 21  2  0
 12 22  1  0
 22 23  2  0
 23  5  1  0
 22  8  1  0
 21 14  1  0
M  END
$$$$
CHEMBL3814211_diffdock_4
     RDKit          3D

 23 25  0  0  0  0  0  0  0  0999 V2000
  -16.1004   17.7048  -24.9954 N   0  0  0  0  0  0  0  0  0  0  0  0
  -15.2940   17.0085  -25.9277 C   0  0  0  0  0  0  0  0  0  0  0  0
  -14.7299   17.6410  -26.8510 O   0  0  0  0  0  0  0  0  0  0  0  0
  -15.0963   15.6052  -25.8582 N   0  0  0  0  0  0  0  0  0  0  0  0
  -14.2429   14.9379  -26.7734 C   0  0  0  0  0  0  0  0  0  0  0  0
  -14.3105   13.5716  -26.9077 C   0  0  0  0  0  0  0  0  0  0  0  0
  -13.4781   12.9296  -27.7996 C   0  0  0  0  0  0  0  0  0  0  0  0
  -12.5617   13.5998  -28.5806 C   0  0  0  0  0  0  0  0  0  0  0  0
  -11.7563   12.9604  -29.4486 N   0  0  0  0  0  0  0  0  0  0  0  0
  -10.8611   13.5969  -30.2164 C   0  0  0  0  0  0  0  0  0  0  0  0
  -10.7787   14.9199  -30.1019 N   0  0  0  0  0  0  0  0  0  0  0  0
  -11.5591   15.6491  -29.2448 C   0  0  0  0  0  0  0  0  0  0  0  0
  -11.4284   17.0482  -29.1662 N   0  0  0  0  0  0  0  0  0  0  0  0
  -10.6052   17.8553  -30.0176 C   0  0  0  0  0  0  0  0  0  0  0  0
   -9.9450   18.9842  -29.6099 C   0  0  0  0  0  0  0  0  0  0  0  0
   -9.1890   19.7002  -30.5265 C   0  0  0  0  0  0  0  0  0  0  0  0
   -9.0669   19.3312  -31.8359 C   0  0  0  0  0  0  0  0  0  0  0  0
   -8.3184   20.0629  -32.6900 F   0  0  0  0  0  0  0  0  0  0  0  0
   -9.7232   18.2022  -32.2542 C   0  0  0  0  0  0  0  0  0  0  0  0
   -9.5683   17.7218  -33.9388 Cl  0  0  0  0  0  0  0  0  0  0  0  0
  -10.4714   17.4887  -31.3598 C   0  0  0  0  0  0  0  0  0  0  0  0
  -12.4796   14.9924  -28.4562 C   0  0  0  0  0  0  0  0  0  0  0  0
  -13.3110   15.6266  -27.5667 C   0  0  0  0  0  0  0  0  0  0  0  0
  1  2  1  0
  2  3  2  0
  2  4  1  0
  4  5  1  0
  5  6  2  0
  6  7  1  0
  7  8  2  0
  8  9  1  0
  9 10  2  0
 10 11  1  0
 11 12  2  0
 12 13  1  0
 13 14  1  0
 14 15  2  0
 15 16  1  0
 16 17  2  0
 17 18  1  0
 17 19  1  0
 19 20  1  0
 19 21  2  0
 12 22  1  0
 22 23  2  0
 23  5  1  0
 22  8  1  0
 21 14  1  0
M  END
$$$$
CHEMBL3814211_diffdock_5
     RDKit          3D

 23 25  0  0  0  0  0  0  0  0999 V2000
  -15.1664   17.4040  -23.7967 N   0  0  0  0  0  0  0  0  0  0  0  0
  -14.6742   16.9677  -25.0503 C   0  0  0  0  0  0  0  0  0  0  0  0
  -13.9347   17.7247  -25.7217 O   0  0  0  0  0  0  0  0  0  0  0  0
  -14.9887   15.6913  -25.5843 N   0  0  0  0  0  0  0  0  0  0  0  0
  -14.1012   15.0267  -26.4686 C   0  0  0  0  0  0  0  0  0  0  0  0
  -14.1132   13.6549  -26.5544 C   0  0  0  0  0  0  0  0  0  0  0  0
  -13.2479   13.0156  -27.4164 C   0  0  0  0  0  0  0  0  0  0  0  0
  -12.3519   13.6938  -28.2140 C   0  0  0  0  0  0  0  0  0  0  0  0
  -11.5140   13.0568  -29.0523 N   0  0  0  0  0  0  0  0  0  0  0  0
  -10.6379   13.7010  -29.8356 C   0  0  0  0  0  0  0  0  0  0  0  0
  -10.6092   15.0295  -29.7680 N   0  0  0  0  0  0  0  0  0  0  0  0
  -11.4257   15.7567  -28.9435 C   0  0  0  0  0  0  0  0  0  0  0  0
  -11.3513   17.1618  -28.9140 N   0  0  0  0  0  0  0  0  0  0  0  0
  -10.5838   17.9727  -29.8125 C   0  0  0  0  0  0  0  0  0  0  0  0
   -9.8466   19.0626  -29.4317 C   0  0  0  0  0  0  0  0  0  0  0  0
   -9.1555   19.7873  -30.3918 C   0  0  0  0  0  0  0  0  0  0  0  0
   -9.1723   19.4643  -31.7187 C   0  0  0  0  0  0  0  0  0  0  0  0
   -8.4822   20.2025  -32.6154 F   0  0  0  0  0  0  0  0  0  0  0  0
   -9.9067   18.3744  -32.1105 C   0  0  0  0  0  0  0  0  0  0  0  0
   -9.9307   17.9534  -33.8177 Cl  0  0  0  0  0  0  0  0  0  0  0  0
  -10.5921   17.6529  -31.1731 C   0  0  0  0  0  0  0  0  0  0  0  0
  -12.3264   15.0921  -28.1388 C   0  0  0  0  0  0  0  0  0  0  0  0
  -13.1903   15.7236  -27.2789 C   0  0  0  0  0  0  0  0  0  0  0  0
  1  2  1  0
  2  3  2  0
  2  4  1  0
  4  5  1  0
  5  6  2  0
  6  7  1  0
  7  8  2  0
  8  9  1  0
  9 10  2  0
 10 11  1  0
 11 12  2  0
 12 13  1  0
 13 14  1  0
 14 15  2  0
 15 16  1  0
 16 17  2  0
 17 18  1  0
 17 19  1  0
 19 20  1  0
 19 21  2  0
 12 22  1  0
 22 23  2  0
 23  5  1  0
 22  8  1  0
 21 14  1  0
M  END
$$$$
CHEMBL3814211_diffdock_6
     RDKit          3D

 23 25  0  0  0  0  0  0  0  0999 V2000
  -15.5785   17.9377  -24.4903 N   0  0  0  0  0  0  0  0  0  0  0  0
  -14.8900   17.2548  -25.5217 C   0  0  0  0  0  0  0  0  0  0  0  0
  -14.0982   17.8863  -26.2599 O   0  0  0  0  0  0  0  0  0  0  0  0
  -15.0627   15.8662  -25.7566 N   0  0  0  0  0  0  0  0  0  0  0  0
  -14.1822   15.1506  -26.6074 C   0  0  0  0  0  0  0  0  0  0  0  0
  -14.2757   13.7825  -26.7017 C   0  0  0  0  0  0  0  0  0  0  0  0
  -13.4166   13.0934  -27.5310 C   0  0  0  0  0  0  0  0  0  0  0  0
  -12.4480   13.7172  -28.2870 C   0  0  0  0  0  0  0  0  0  0  0  0
  -11.6170   13.0321  -29.0938 N   0  0  0  0  0  0  0  0  0  0  0  0
  -10.6709   13.6232  -29.8365 C   0  0  0  0  0  0  0  0  0  0  0  0
  -10.5627   14.9471  -29.7599 N   0  0  0  0  0  0  0  0  0  0  0  0
  -11.3660   15.7210  -28.9655 C   0  0  0  0  0  0  0  0  0  0  0  0
  -11.2060   17.1186  -28.9247 N   0  0  0  0  0  0  0  0  0  0  0  0
  -10.2669   17.8708  -29.7032 C   0  0  0  0  0  0  0  0  0  0  0  0
   -9.4269   18.8242  -29.1913 C   0  0  0  0  0  0  0  0  0  0  0  0
   -8.5695   19.5055  -30.0429 C   0  0  0  0  0  0  0  0  0  0  0  0
   -8.5187   19.2703  -31.3874 C   0  0  0  0  0  0  0  0  0  0  0  0
   -7.6657   19.9611  -32.1749 F   0  0  0  0  0  0  0  0  0  0  0  0
   -9.3549   18.3173  -31.9099 C   0  0  0  0  0  0  0  0  0  0  0  0
   -9.2926   18.0096  -33.6402 Cl  0  0  0  0  0  0  0  0  0  0  0  0
  -10.2044   17.6398  -31.0803 C   0  0  0  0  0  0  0  0  0  0  0  0
  -12.3389   15.1110  -28.2026 C   0  0  0  0  0  0  0  0  0  0  0  0
  -13.1969   15.7922  -27.3753 C   0  0  0  0  0  0  0  0  0  0  0  0
  1  2  1  0
  2  3  2  0
  2  4  1  0
  4  5  1  0
  5  6  2  0
  6  7  1  0
  7  8  2  0
  8  9  1  0
  9 10  2  0
 10 11  1  0
 11 12  2  0
 12 13  1  0
 13 14  1  0
 14 15  2  0
 15 16  1  0
 16 17  2  0
 17 18  1  0
 17 19  1  0
 19 20  1  0
 19 21  2  0
 12 22  1  0
 22 23  2  0
 23  5  1  0
 22  8  1  0
 21 14  1  0
M  END
$$$$
CHEMBL3814211_diffdock_7
     RDKit          3D

 23 25  0  0  0  0  0  0  0  0999 V2000
  -16.1342   17.8084  -24.6418 N   0  0  0  0  0  0  0  0  0  0  0  0
  -15.2672   17.0985  -25.5069 C   0  0  0  0  0  0  0  0  0  0  0  0
  -14.6887   17.7064  -26.4378 O   0  0  0  0  0  0  0  0  0  0  0  0
  -15.0236   15.7084  -25.3608 N   0  0  0  0  0  0  0  0  0  0  0  0
  -14.1315   15.0246  -26.2257 C   0  0  0  0  0  0  0  0  0  0  0  0
  -14.1358   13.6509  -26.2736 C   0  0  0  0  0  0  0  0  0  0  0  0
  -13.2661   12.9929  -27.1169 C   0  0  0  0  0  0  0  0  0  0  0  0
  -12.3732   13.6538  -27.9322 C   0  0  0  0  0  0  0  0  0  0  0  0
  -11.5309   12.9986  -28.7520 N   0  0  0  0  0  0  0  0  0  0  0  0
  -10.6576   13.6259  -29.5521 C   0  0  0  0  0  0  0  0  0  0  0  0
  -10.6365   14.9559  -29.5211 N   0  0  0  0  0  0  0  0  0  0  0  0
  -11.4577   15.7010  -28.7176 C   0  0  0  0  0  0  0  0  0  0  0  0
  -11.3913   17.1068  -28.7269 N   0  0  0  0  0  0  0  0  0  0  0  0
  -10.5515   17.8937  -29.5809 C   0  0  0  0  0  0  0  0  0  0  0  0
   -9.8751   19.0152  -29.1792 C   0  0  0  0  0  0  0  0  0  0  0  0
   -9.1036   19.7116  -30.0981 C   0  0  0  0  0  0  0  0  0  0  0  0
   -8.9814   19.3300  -31.4038 C   0  0  0  0  0  0  0  0  0  0  0  0
   -8.2174   20.0427  -32.2603 F   0  0  0  0  0  0  0  0  0  0  0  0
   -9.6538   18.2082  -31.8160 C   0  0  0  0  0  0  0  0  0  0  0  0
   -9.4988   17.7117  -33.4959 Cl  0  0  0  0  0  0  0  0  0  0  0  0
  -10.4174   17.5140  -30.9194 C   0  0  0  0  0  0  0  0  0  0  0  0
  -12.3555   15.0538  -27.8956 C   0  0  0  0  0  0  0  0  0  0  0  0
  -13.2238   15.7040  -27.0542 C   0  0  0  0  0  0  0  0  0  0  0  0
  1  2  1  0
  2  3  2  0
  2  4  1  0
  4  5  1  0
  5  6  2  0
  6  7  1  0
  7  8  2  0
  8  9  1  0
  9 10  2  0
 10 11  1  0
 11 12  2  0
 12 13  1  0
 13 14  1  0
 14 15  2  0
 15 16  1  0
 16 17  2  0
 17 18  1  0
 17 19  1  0
 19 20  1  0
 19 21  2  0
 12 22  1  0
 22 23  2  0
 23  5  1  0
 22  8  1  0
 21 14  1  0
M  END
$$$$
CHEMBL3814211_diffdock_8
     RDKit          3D

 23 25  0  0  0  0  0  0  0  0999 V2000
  -15.9074   17.8177  -24.9486 N   0  0  0  0  0  0  0  0  0  0  0  0
  -15.1070   17.1012  -25.8707 C   0  0  0  0  0  0  0  0  0  0  0  0
  -14.6147   17.6982  -26.8566 O   0  0  0  0  0  0  0  0  0  0  0  0
  -14.8363   15.7164  -25.7218 N   0  0  0  0  0  0  0  0  0  0  0  0
  -13.9760   15.0359  -26.6208 C   0  0  0  0  0  0  0  0  0  0  0  0
  -13.9815   13.6623  -26.6729 C   0  0  0  0  0  0  0  0  0  0  0  0
  -13.1428   13.0075  -27.5495 C   0  0  0  0  0  0  0  0  0  0  0  0
  -12.2804   13.6715  -28.3946 C   0  0  0  0  0  0  0  0  0  0  0  0
  -11.4682   13.0194  -29.2466 N   0  0  0  0  0  0  0  0  0  0  0  0
  -10.6249   13.6497  -30.0759 C   0  0  0  0  0  0  0  0  0  0  0  0
  -10.6031   14.9796  -30.0414 N   0  0  0  0  0  0  0  0  0  0  0  0
  -11.3949   15.7217  -29.2062 C   0  0  0  0  0  0  0  0  0  0  0  0
  -11.3294   17.1275  -29.2133 N   0  0  0  0  0  0  0  0  0  0  0  0
  -10.4840   17.9160  -30.0602 C   0  0  0  0  0  0  0  0  0  0  0  0
   -9.7965   19.0267  -29.6476 C   0  0  0  0  0  0  0  0  0  0  0  0
   -9.0204   19.7260  -30.5602 C   0  0  0  0  0  0  0  0  0  0  0  0
   -8.9043   19.3579  -31.8704 C   0  0  0  0  0  0  0  0  0  0  0  0
   -8.1354   20.0729  -32.7205 F   0  0  0  0  0  0  0  0  0  0  0  0
   -9.5879   18.2470  -32.2936 C   0  0  0  0  0  0  0  0  0  0  0  0
   -9.4409   17.7678  -33.9793 Cl  0  0  0  0  0  0  0  0  0  0  0  0
  -10.3562   17.5500  -31.4031 C   0  0  0  0  0  0  0  0  0  0  0  0
  -12.2620   15.0714  -28.3541 C   0  0  0  0  0  0  0  0  0  0  0  0
  -13.0993   15.7184  -27.4796 C   0  0  0  0  0  0  0  0  0  0  0  0
  1  2  1  0
  2  3  2  0
  2  4  1  0
  4  5  1  0
  5  6  2  0
  6  7  1  0
  7  8  2  0
  8  9  1  0
  9 10  2  0
 10 11  1  0
 11 12  2  0
 12 13  1  0
 13 14  1  0
 14 15  2  0
 15 16  1  0
 16 17  2  0
 17 18  1  0
 17 19  1  0
 19 20  1  0
 19 21  2  0
 12 22  1  0
 22 23  2  0
 23  5  1  0
 22  8  1  0
 21 14  1  0
M  END
$$$$
CHEMBL3814211_diffdock_9
     RDKit          3D

 23 25  0  0  0  0  0  0  0  0999 V2000
  -15.3731   17.9536  -24.5753 N   0  0  0  0  0  0  0  0  0  0  0  0
  -14.6796   17.2181  -25.5664 C   0  0  0  0  0  0  0  0  0  0  0  0
  -13.9412   17.8208  -26.3802 O   0  0  0  0  0  0  0  0  0  0  0  0
  -14.7884   15.8077  -25.6771 N   0  0  0  0  0  0  0  0  0  0  0  0
  -13.8844   15.0623  -26.4761 C   0  0  0  0  0  0  0  0  0  0  0  0
  -13.9306   13.6885  -26.4695 C   0  0  0  0  0  0  0  0  0  0  0  0
  -13.0490   12.9704  -27.2489 C   0  0  0  0  0  0  0  0  0  0  0  0
  -12.1031   13.5699  -28.0518 C   0  0  0  0  0  0  0  0  0  0  0  0
  -11.2497   12.8564  -28.8091 N   0  0  0  0  0  0  0  0  0  0  0  0
  -10.3251   13.4235  -29.5963 C   0  0  0  0  0  0  0  0  0  0  0  0
  -10.2627   14.7524  -29.6174 N   0  0  0  0  0  0  0  0  0  0  0  0
  -11.0916   15.5545  -28.8792 C   0  0  0  0  0  0  0  0  0  0  0  0
  -10.9799   16.9560  -28.9416 N   0  0  0  0  0  0  0  0  0  0  0  0
  -10.0877   17.6815  -29.7968 C   0  0  0  0  0  0  0  0  0  0  0  0
   -9.3732   18.7846  -29.4104 C   0  0  0  0  0  0  0  0  0  0  0  0
   -8.5516   19.4208  -30.3296 C   0  0  0  0  0  0  0  0  0  0  0  0
   -8.4160   18.9967  -31.6208 C   0  0  0  0  0  0  0  0  0  0  0  0
   -7.6028   19.6513  -32.4783 F   0  0  0  0  0  0  0  0  0  0  0  0
   -9.1265   17.8929  -32.0176 C   0  0  0  0  0  0  0  0  0  0  0  0
   -8.9547   17.3419  -33.6788 Cl  0  0  0  0  0  0  0  0  0  0  0  0
   -9.9396   17.2580  -31.1205 C   0  0  0  0  0  0  0  0  0  0  0  0
  -12.0422   14.9691  -28.0703 C   0  0  0  0  0  0  0  0  0  0  0  0
  -12.9225   15.6792  -27.2924 C   0  0  0  0  0  0  0  0  0  0  0  0
  1  2  1  0
  2  3  2  0
  2  4  1  0
  4  5  1  0
  5  6  2  0
  6  7  1  0
  7  8  2  0
  8  9  1  0
  9 10  2  0
 10 11  1  0
 11 12  2  0
 12 13  1  0
 13 14  1  0
 14 15  2  0
 15 16  1  0
 16 17  2  0
 17 18  1  0
 17 19  1  0
 19 20  1  0
 19 21  2  0
 12 22  1  0
 22 23  2  0
 23  5  1  0
 22  8  1  0
 21 14  1  0
M  END
$$$$
CHEMBL3814211_diffdock_10
     RDKit          3D

 23 25  0  0  0  0  0  0  0  0999 V2000
  -15.8930   17.8343  -24.4810 N   0  0  0  0  0  0  0  0  0  0  0  0
  -15.1580   17.1941  -25.5076 C   0  0  0  0  0  0  0  0  0  0  0  0
  -14.5270   17.8864  -26.3403 O   0  0  0  0  0  0  0  0  0  0  0  0
  -15.1063   15.7818  -25.6337 N   0  0  0  0  0  0  0  0  0  0  0  0
  -14.1744   15.1558  -26.5004 C   0  0  0  0  0  0  0  0  0  0  0  0
  -14.0576   13.7863  -26.5128 C   0  0  0  0  0  0  0  0  0  0  0  0
  -13.1498   13.1846  -27.3581 C   0  0  0  0  0  0  0  0  0  0  0  0
  -12.3356   13.8991  -28.2098 C   0  0  0  0  0  0  0  0  0  0  0  0
  -11.4549   13.2984  -29.0311 N   0  0  0  0  0  0  0  0  0  0  0  0
  -10.6570   13.9780  -29.8663 C   0  0  0  0  0  0  0  0  0  0  0  0
  -10.7535   15.3050  -29.8701 N   0  0  0  0  0  0  0  0  0  0  0  0
  -11.6215   15.9966  -29.0679 C   0  0  0  0  0  0  0  0  0  0  0  0
  -11.6805   17.4020  -29.1149 N   0  0  0  0  0  0  0  0  0  0  0  0
  -10.9441   18.2351  -30.0190 C   0  0  0  0  0  0  0  0  0  0  0  0
  -10.3633   19.4265  -29.6729 C   0  0  0  0  0  0  0  0  0  0  0  0
   -9.6884   20.1612  -30.6369 C   0  0  0  0  0  0  0  0  0  0  0  0
   -9.5711   19.7508  -31.9344 C   0  0  0  0  0  0  0  0  0  0  0  0
   -8.9034   20.5031  -32.8363 F   0  0  0  0  0  0  0  0  0  0  0  0
  -10.1483   18.5592  -32.2911 C   0  0  0  0  0  0  0  0  0  0  0  0
   -9.9992   18.0255  -33.9601 Cl  0  0  0  0  0  0  0  0  0  0  0  0
  -10.8162   17.8267  -31.3496 C   0  0  0  0  0  0  0  0  0  0  0  0
  -12.4417   15.2956  -28.2097 C   0  0  0  0  0  0  0  0  0  0  0  0
  -13.3473   15.8896  -27.3661 C   0  0  0  0  0  0  0  0  0  0  0  0
  1  2  1  0
  2  3  2  0
  2  4  1  0
  4  5  1  0
  5  6  2  0
  6  7  1  0
  7  8  2  0
  8  9  1  0
  9 10  2  0
 10 11  1  0
 11 12  2  0
 12 13  1  0
 13 14  1  0
 14 15  2  0
 15 16  1  0
 16 17  2  0
 17 18  1  0
 17 19  1  0
 19 20  1  0
 19 21  2  0
 12 22  1  0
 22 23  2  0
 23  5  1  0
 22  8  1  0
 21 14  1  0
M  END
$$$$
CHEMBL1645466_diffdock_1
     RDKit          3D

 26 29  0  0  0  0  0  0  0  0999 V2000
   -6.9216   21.1042  -30.1384 C   0  0  0  0  0  0  0  0  0  0  0  0
   -7.7127   20.2637  -30.4218 C   0  0  0  0  0  0  0  0  0  0  0  0
   -8.6742   19.2509  -30.7766 C   0  0  0  0  0  0  0  0  0  0  0  0
   -8.8659   18.9648  -32.1270 C   0  0  0  0  0  0  0  0  0  0  0  0
   -9.7825   17.9845  -32.4610 C   0  0  0  0  0  0  0  0  0  0  0  0
  -10.5005   17.2901  -31.5356 C   0  0  0  0  0  0  0  0  0  0  0  0
  -10.3136   17.5710  -30.1713 C   0  0  0  0  0  0  0  0  0  0  0  0
  -11.0710   16.8604  -29.2048 N   0  0  0  0  0  0  0  0  0  0  0  0
  -11.3936   15.5039  -29.3913 C   0  0  0  0  0  0  0  0  0  0  0  0
  -10.8891   14.8093  -30.4603 N   0  0  0  0  0  0  0  0  0  0  0  0
  -11.1606   13.5187  -30.6849 C   0  0  0  0  0  0  0  0  0  0  0  0
  -11.9474   12.8832  -29.8427 N   0  0  0  0  0  0  0  0  0  0  0  0
  -12.4761   13.4489  -28.7991 N   0  0  0  0  0  0  0  0  0  0  0  0
  -13.2818   12.9473  -27.8672 C   0  0  0  0  0  0  0  0  0  0  0  0
  -13.5525   13.9456  -26.9956 C   0  0  0  0  0  0  0  0  0  0  0  0
  -12.8873   15.1180  -27.4017 C   0  0  0  0  0  0  0  0  0  0  0  0
  -12.9638   16.4158  -26.6807 C   0  0  0  0  0  0  0  0  0  0  0  0
  -14.2155   17.0249  -26.9156 N   0  0  0  0  0  0  0  0  0  0  0  0
  -14.2880   18.1455  -27.7583 C   0  0  0  0  0  0  0  0  0  0  0  0
  -15.2342   19.2059  -27.2454 C   0  0  0  0  0  0  0  0  0  0  0  0
  -15.5370   18.9268  -25.7846 C   0  0  0  0  0  0  0  0  0  0  0  0
  -16.4836   19.9361  -25.3207 N   0  0  0  0  0  0  0  0  0  0  0  0
  -16.1633   17.5610  -25.6267 C   0  0  0  0  0  0  0  0  0  0  0  0
  -15.3728   16.4900  -26.3351 C   0  0  0  0  0  0  0  0  0  0  0  0
  -12.2145   14.7709  -28.5464 C   0  0  0  0  0  0  0  0  0  0  0  0
   -9.4051   18.5459  -29.8362 C   0  0  0  0  0  0  0  0  0  0  0  0
  1  2  3  0
  2  3  1  0
  3  4  2  0
  4  5  1  0
  5  6  2  0
  6  7  1  0
  7  8  1  0
  8  9  1  0
  9 10  2  0
 10 11  1  0
 11 12  2  0
 12 13  1  0
 13 14  1  0
 14 15  2  0
 15 16  1  0
 16 17  1  0
 17 18  1  0
 18 19  1  0
 19 20  1  0
 20 21  1  0
 21 22  1  0
 21 23  1  0
 23 24  1  0
 16 25  2  0
  7 26  2  0
 26  3  1  0
 25  9  1  0
 25 13  1  0
 24 18  1  0
M  END
$$$$
CHEMBL1645466_diffdock_2
     RDKit          3D

 26 29  0  0  0  0  0  0  0  0999 V2000
   -6.3687   17.8691  -31.5151 C   0  0  0  0  0  0  0  0  0  0  0  0
   -7.3005   18.2640  -30.8919 C   0  0  0  0  0  0  0  0  0  0  0  0
   -8.4222   18.7462  -30.1268 C   0  0  0  0  0  0  0  0  0  0  0  0
   -8.4451   20.0912  -29.7624 C   0  0  0  0  0  0  0  0  0  0  0  0
   -9.5294   20.5507  -29.0371 C   0  0  0  0  0  0  0  0  0  0  0  0
  -10.5691   19.7533  -28.6665 C   0  0  0  0  0  0  0  0  0  0  0  0
  -10.5553   18.3958  -29.0299 C   0  0  0  0  0  0  0  0  0  0  0  0
  -11.6293   17.5584  -28.6324 N   0  0  0  0  0  0  0  0  0  0  0  0
  -11.5556   16.1622  -28.7884 C   0  0  0  0  0  0  0  0  0  0  0  0
  -10.4702   15.5864  -29.3968 N   0  0  0  0  0  0  0  0  0  0  0  0
  -10.3469   14.2655  -29.5693 C   0  0  0  0  0  0  0  0  0  0  0  0
  -11.3095   13.4795  -29.1359 N   0  0  0  0  0  0  0  0  0  0  0  0
  -12.3786   13.9241  -28.5460 N   0  0  0  0  0  0  0  0  0  0  0  0
  -13.4266   13.2654  -28.0592 C   0  0  0  0  0  0  0  0  0  0  0  0
  -14.2736   14.1874  -27.5471 C   0  0  0  0  0  0  0  0  0  0  0  0
  -13.7301   15.4741  -27.7221 C   0  0  0  0  0  0  0  0  0  0  0  0
  -14.3945   16.7297  -27.2840 C   0  0  0  0  0  0  0  0  0  0  0  0
  -13.9670   17.0731  -25.9831 N   0  0  0  0  0  0  0  0  0  0  0  0
  -14.4540   16.3467  -24.8848 C   0  0  0  0  0  0  0  0  0  0  0  0
  -14.7744   17.2231  -23.6964 C   0  0  0  0  0  0  0  0  0  0  0  0
  -14.8440   18.6674  -24.1578 C   0  0  0  0  0  0  0  0  0  0  0  0
  -15.1124   19.5001  -22.9897 N   0  0  0  0  0  0  0  0  0  0  0  0
  -13.5282   19.0910  -24.7674 C   0  0  0  0  0  0  0  0  0  0  0  0
  -13.0410   18.1085  -25.8024 C   0  0  0  0  0  0  0  0  0  0  0  0
  -12.5301   15.2737  -28.3573 C   0  0  0  0  0  0  0  0  0  0  0  0
   -9.4785   17.9357  -29.7488 C   0  0  0  0  0  0  0  0  0  0  0  0
  1  2  3  0
  2  3  1  0
  3  4  2  0
  4  5  1  0
  5  6  2  0
  6  7  1  0
  7  8  1  0
  8  9  1  0
  9 10  2  0
 10 11  1  0
 11 12  2  0
 12 13  1  0
 13 14  1  0
 14 15  2  0
 15 16  1  0
 16 17  1  0
 17 18  1  0
 18 19  1  0
 19 20  1  0
 20 21  1  0
 21 22  1  0
 21 23  1  0
 23 24  1  0
 16 25  2  0
  7 26  2  0
 26  3  1  0
 25  9  1  0
 25 13  1  0
 24 18  1  0
M  END
$$$$
CHEMBL1645466_diffdock_3
     RDKit          3D

 26 29  0  0  0  0  0  0  0  0999 V2000
   -8.9544   22.7713  -29.3078 C   0  0  0  0  0  0  0  0  0  0  0  0
   -9.2246   21.6442  -29.5713 C   0  0  0  0  0  0  0  0  0  0  0  0
   -9.5623   20.2820  -29.8978 C   0  0  0  0  0  0  0  0  0  0  0  0
   -8.8966   19.6718  -30.9593 C   0  0  0  0  0  0  0  0  0  0  0  0
   -9.2173   18.3609  -31.2614 C   0  0  0  0  0  0  0  0  0  0  0  0
  -10.1475   17.6441  -30.5720 C   0  0  0  0  0  0  0  0  0  0  0  0
  -10.8236   18.2507  -29.4996 C   0  0  0  0  0  0  0  0  0  0  0  0
  -11.8043   17.5121  -28.7887 N   0  0  0  0  0  0  0  0  0  0  0  0
  -11.7284   16.1105  -28.6941 C   0  0  0  0  0  0  0  0  0  0  0  0
  -10.6155   15.4426  -29.1356 N   0  0  0  0  0  0  0  0  0  0  0  0
  -10.4888   14.1125  -29.0677 C   0  0  0  0  0  0  0  0  0  0  0  0
  -11.4756   13.4096  -28.5537 N   0  0  0  0  0  0  0  0  0  0  0  0
  -12.5719   13.9452  -28.1065 N   0  0  0  0  0  0  0  0  0  0  0  0
  -13.6464   13.3765  -27.5666 C   0  0  0  0  0  0  0  0  0  0  0  0
  -14.5148   14.3697  -27.2680 C   0  0  0  0  0  0  0  0  0  0  0  0
  -13.9578   15.6087  -27.6373 C   0  0  0  0  0  0  0  0  0  0  0  0
  -14.6388   16.9182  -27.4605 C   0  0  0  0  0  0  0  0  0  0  0  0
  -14.0999   17.5954  -26.3450 N   0  0  0  0  0  0  0  0  0  0  0  0
  -13.1247   16.9601  -25.5598 C   0  0  0  0  0  0  0  0  0  0  0  0
  -13.3149   17.1992  -24.0801 C   0  0  0  0  0  0  0  0  0  0  0  0
  -14.7168   17.7319  -23.8463 C   0  0  0  0  0  0  0  0  0  0  0  0
  -14.8655   17.9954  -22.4186 N   0  0  0  0  0  0  0  0  0  0  0  0
  -14.9249   19.0217  -24.6051 C   0  0  0  0  0  0  0  0  0  0  0  0
  -14.5165   18.9002  -26.0516 C   0  0  0  0  0  0  0  0  0  0  0  0
  -12.7275   15.3062  -28.1649 C   0  0  0  0  0  0  0  0  0  0  0  0
  -10.5086   19.5537  -29.1981 C   0  0  0  0  0  0  0  0  0  0  0  0
  1  2  3  0
  2  3  1  0
  3  4  2  0
  4  5  1  0
  5  6  2  0
  6  7  1  0
  7  8  1  0
  8  9  1  0
  9 10  2  0
 10 11  1  0
 11 12  2  0
 12 13  1  0
 13 14  1  0
 14 15  2  0
 15 16  1  0
 16 17  1  0
 17 18  1  0
 18 19  1  0
 19 20  1  0
 20 21  1  0
 21 22  1  0
 21 23  1  0
 23 24  1  0
 16 25  2  0
  7 26  2  0
 26  3  1  0
 25  9  1  0
 25 13  1  0
 24 18  1  0
M  END
$$$$
CHEMBL1645466_diffdock_4
     RDKit          3D

 26 29  0  0  0  0  0  0  0  0999 V2000
   -8.7677   18.5896  -33.1545 C   0  0  0  0  0  0  0  0  0  0  0  0
   -9.1374   18.6044  -32.0250 C   0  0  0  0  0  0  0  0  0  0  0  0
   -9.5951   18.6139  -30.6587 C   0  0  0  0  0  0  0  0  0  0  0  0
   -9.1711   19.6481  -29.8263 C   0  0  0  0  0  0  0  0  0  0  0  0
   -9.6219   19.6578  -28.5189 C   0  0  0  0  0  0  0  0  0  0  0  0
  -10.4569   18.7090  -28.0122 C   0  0  0  0  0  0  0  0  0  0  0  0
  -10.8904   17.6625  -28.8441 C   0  0  0  0  0  0  0  0  0  0  0  0
  -11.7481   16.6636  -28.3156 N   0  0  0  0  0  0  0  0  0  0  0  0
  -11.6016   15.3138  -28.6840 C   0  0  0  0  0  0  0  0  0  0  0  0
  -10.5776   14.9247  -29.5085 N   0  0  0  0  0  0  0  0  0  0  0  0
  -10.3896   13.6559  -29.8886 C   0  0  0  0  0  0  0  0  0  0  0  0
  -11.2239   12.7360  -29.4527 N   0  0  0  0  0  0  0  0  0  0  0  0
  -12.2255   12.9995  -28.6678 N   0  0  0  0  0  0  0  0  0  0  0  0
  -13.1452   12.1904  -28.1495 C   0  0  0  0  0  0  0  0  0  0  0  0
  -13.9715   12.9552  -27.3999 C   0  0  0  0  0  0  0  0  0  0  0  0
  -13.5485   14.2968  -27.4535 C   0  0  0  0  0  0  0  0  0  0  0  0
  -14.2281   15.4171  -26.7513 C   0  0  0  0  0  0  0  0  0  0  0  0
  -13.4550   16.5935  -26.8589 N   0  0  0  0  0  0  0  0  0  0  0  0
  -12.4153   16.8197  -25.9430 C   0  0  0  0  0  0  0  0  0  0  0  0
  -12.3319   18.2596  -25.4929 C   0  0  0  0  0  0  0  0  0  0  0  0
  -13.6263   18.9627  -25.8587 C   0  0  0  0  0  0  0  0  0  0  0  0
  -13.5091   20.3599  -25.4537 N   0  0  0  0  0  0  0  0  0  0  0  0
  -13.8555   18.9044  -27.3508 C   0  0  0  0  0  0  0  0  0  0  0  0
  -13.7093   17.5046  -27.8921 C   0  0  0  0  0  0  0  0  0  0  0  0
  -12.4409   14.2920  -28.2639 C   0  0  0  0  0  0  0  0  0  0  0  0
  -10.4427   17.6489  -30.1431 C   0  0  0  0  0  0  0  0  0  0  0  0
  1  2  3  0
  2  3  1  0
  3  4  2  0
  4  5  1  0
  5  6  2  0
  6  7  1  0
  7  8  1  0
  8  9  1  0
  9 10  2  0
 10 11  1  0
 11 12  2  0
 12 13  1  0
 13 14  1  0
 14 15  2  0
 15 16  1  0
 16 17  1  0
 17 18  1  0
 18 19  1  0
 19 20  1  0
 20 21  1  0
 21 22  1  0
 21 23  1  0
 23 24  1  0
 16 25  2  0
  7 26  2  0
 26  3  1  0
 25  9  1  0
 25 13  1  0
 24 18  1  0
M  END
$$$$
CHEMBL1645466_diffdock_5
     RDKit          3D

 26 29  0  0  0  0  0  0  0  0999 V2000
   -5.7772   17.2274  -31.7699 C   0  0  0  0  0  0  0  0  0  0  0  0
   -6.7267   17.6779  -31.2146 C   0  0  0  0  0  0  0  0  0  0  0  0
   -7.8812   18.2121  -30.5380 C   0  0  0  0  0  0  0  0  0  0  0  0
   -8.1411   19.5766  -30.6503 C   0  0  0  0  0  0  0  0  0  0  0  0
   -9.2565   20.0819  -30.0074 C   0  0  0  0  0  0  0  0  0  0  0  0
  -10.1071   19.3108  -29.2753 C   0  0  0  0  0  0  0  0  0  0  0  0
   -9.8536   17.9335  -29.1568 C   0  0  0  0  0  0  0  0  0  0  0  0
  -10.7289   17.1294  -28.3822 N   0  0  0  0  0  0  0  0  0  0  0  0
  -10.8888   15.7592  -28.6582 C   0  0  0  0  0  0  0  0  0  0  0  0
  -10.1335   15.1519  -29.6280 N   0  0  0  0  0  0  0  0  0  0  0  0
  -10.2422   13.8532  -29.9300 C   0  0  0  0  0  0  0  0  0  0  0  0
  -11.1128   13.1216  -29.2675 N   0  0  0  0  0  0  0  0  0  0  0  0
  -11.8755   13.5995  -28.3303 N   0  0  0  0  0  0  0  0  0  0  0  0
  -12.7933   12.9960  -27.5801 C   0  0  0  0  0  0  0  0  0  0  0  0
  -13.3100   13.9330  -26.7525 C   0  0  0  0  0  0  0  0  0  0  0  0
  -12.6877   15.1718  -26.9976 C   0  0  0  0  0  0  0  0  0  0  0  0
  -13.0130   16.4291  -26.2741 C   0  0  0  0  0  0  0  0  0  0  0  0
  -14.3998   16.4930  -26.0176 N   0  0  0  0  0  0  0  0  0  0  0  0
  -15.0827   17.7020  -26.2249 C   0  0  0  0  0  0  0  0  0  0  0  0
  -16.1034   17.9919  -25.1492 C   0  0  0  0  0  0  0  0  0  0  0  0
  -15.8277   17.0932  -23.9576 C   0  0  0  0  0  0  0  0  0  0  0  0
  -16.8479   17.3588  -22.9484 N   0  0  0  0  0  0  0  0  0  0  0  0
  -15.9082   15.6399  -24.3625 C   0  0  0  0  0  0  0  0  0  0  0  0
  -15.0850   15.3479  -25.5917 C   0  0  0  0  0  0  0  0  0  0  0  0
  -11.7846   14.9275  -28.0017 C   0  0  0  0  0  0  0  0  0  0  0  0
   -8.7451   17.4287  -29.7927 C   0  0  0  0  0  0  0  0  0  0  0  0
  1  2  3  0
  2  3  1  0
  3  4  2  0
  4  5  1  0
  5  6  2  0
  6  7  1  0
  7  8  1  0
  8  9  1  0
  9 10  2  0
 10 11  1  0
 11 12  2  0
 12 13  1  0
 13 14  1  0
 14 15  2  0
 15 16  1  0
 16 17  1  0
 17 18  1  0
 18 19  1  0
 19 20  1  0
 20 21  1  0
 21 22  1  0
 21 23  1  0
 23 24  1  0
 16 25  2  0
  7 26  2  0
 26  3  1  0
 25  9  1  0
 25 13  1  0
 24 18  1  0
M  END
$$$$
CHEMBL1645466_diffdock_6
     RDKit          3D

 26 29  0  0  0  0  0  0  0  0999 V2000
   -9.5350   22.4827  -30.7298 C   0  0  0  0  0  0  0  0  0  0  0  0
   -9.5468   21.3118  -30.5260 C   0  0  0  0  0  0  0  0  0  0  0  0
   -9.5530   19.8906  -30.2888 C   0  0  0  0  0  0  0  0  0  0  0  0
   -8.4271   19.1544  -30.6527 C   0  0  0  0  0  0  0  0  0  0  0  0
   -8.4345   17.7923  -30.4131 C   0  0  0  0  0  0  0  0  0  0  0  0
   -9.4854   17.1428  -29.8404 C   0  0  0  0  0  0  0  0  0  0  0  0
  -10.6251   17.8769  -29.4695 C   0  0  0  0  0  0  0  0  0  0  0  0
  -11.7281   17.2014  -28.8866 N   0  0  0  0  0  0  0  0  0  0  0  0
  -11.7832   15.7959  -28.8560 C   0  0  0  0  0  0  0  0  0  0  0  0
  -10.7620   15.0479  -29.3826 N   0  0  0  0  0  0  0  0  0  0  0  0
  -10.7611   13.7101  -29.3784 C   0  0  0  0  0  0  0  0  0  0  0  0
  -11.7857   13.0797  -28.8446 N   0  0  0  0  0  0  0  0  0  0  0  0
  -12.8029   13.6942  -28.3189 N   0  0  0  0  0  0  0  0  0  0  0  0
  -13.9003   13.2042  -27.7490 C   0  0  0  0  0  0  0  0  0  0  0  0
  -14.6539   14.2594  -27.3637 C   0  0  0  0  0  0  0  0  0  0  0  0
  -13.9981   15.4566  -27.7079 C   0  0  0  0  0  0  0  0  0  0  0  0
  -14.5405   16.8146  -27.4403 C   0  0  0  0  0  0  0  0  0  0  0  0
  -13.7879   17.4430  -26.4245 N   0  0  0  0  0  0  0  0  0  0  0  0
  -13.1077   16.6533  -25.4838 C   0  0  0  0  0  0  0  0  0  0  0  0
  -13.1922   17.2076  -24.0808 C   0  0  0  0  0  0  0  0  0  0  0  0
  -14.3034   18.2402  -24.0284 C   0  0  0  0  0  0  0  0  0  0  0  0
  -14.3406   18.7925  -22.6780 N   0  0  0  0  0  0  0  0  0  0  0  0
  -14.0310   19.3592  -25.0062 C   0  0  0  0  0  0  0  0  0  0  0  0
  -13.7002   18.8404  -26.3829 C   0  0  0  0  0  0  0  0  0  0  0  0
  -12.8290   15.0651  -28.3109 C   0  0  0  0  0  0  0  0  0  0  0  0
  -10.6215   19.2300  -29.7079 C   0  0  0  0  0  0  0  0  0  0  0  0
  1  2  3  0
  2  3  1  0
  3  4  2  0
  4  5  1  0
  5  6  2  0
  6  7  1  0
  7  8  1  0
  8  9  1  0
  9 10  2  0
 10 11  1  0
 11 12  2  0
 12 13  1  0
 13 14  1  0
 14 15  2  0
 15 16  1  0
 16 17  1  0
 17 18  1  0
 18 19  1  0
 19 20  1  0
 20 21  1  0
 21 22  1  0
 21 23  1  0
 23 24  1  0
 16 25  2  0
  7 26  2  0
 26  3  1  0
 25  9  1  0
 25 13  1  0
 24 18  1  0
M  END
$$$$
CHEMBL1645466_diffdock_7
     RDKit          3D

 26 29  0  0  0  0  0  0  0  0999 V2000
   -7.9872   22.0337  -29.9899 C   0  0  0  0  0  0  0  0  0  0  0  0
   -8.3424   20.9030  -30.0797 C   0  0  0  0  0  0  0  0  0  0  0  0
   -8.7727   19.5333  -30.2015 C   0  0  0  0  0  0  0  0  0  0  0  0
   -8.3132   18.7896  -31.2868 C   0  0  0  0  0  0  0  0  0  0  0  0
   -8.7212   17.4724  -31.3928 C   0  0  0  0  0  0  0  0  0  0  0  0
   -9.5454   16.8732  -30.4896 C   0  0  0  0  0  0  0  0  0  0  0  0
  -10.0135   17.6149  -29.3915 C   0  0  0  0  0  0  0  0  0  0  0  0
  -10.8848   16.9987  -28.4566 N   0  0  0  0  0  0  0  0  0  0  0  0
  -11.2937   15.6625  -28.6188 C   0  0  0  0  0  0  0  0  0  0  0  0
  -10.8321   14.9166  -29.6725 N   0  0  0  0  0  0  0  0  0  0  0  0
  -11.1857   13.6421  -29.8737 C   0  0  0  0  0  0  0  0  0  0  0  0
  -12.0141   13.0748  -29.0229 N   0  0  0  0  0  0  0  0  0  0  0  0
  -12.5082   13.6932  -27.9923 N   0  0  0  0  0  0  0  0  0  0  0  0
  -13.3470   13.2624  -27.0543 C   0  0  0  0  0  0  0  0  0  0  0  0
  -13.5551   14.2926  -26.2027 C   0  0  0  0  0  0  0  0  0  0  0  0
  -12.8146   15.4117  -26.6282 C   0  0  0  0  0  0  0  0  0  0  0  0
  -12.8092   16.7252  -25.9321 C   0  0  0  0  0  0  0  0  0  0  0  0
  -13.9684   17.4559  -26.2720 N   0  0  0  0  0  0  0  0  0  0  0  0
  -13.9905   18.8449  -26.0683 C   0  0  0  0  0  0  0  0  0  0  0  0
  -15.3127   19.3383  -25.5288 C   0  0  0  0  0  0  0  0  0  0  0  0
  -16.0993   18.1526  -25.0006 C   0  0  0  0  0  0  0  0  0  0  0  0
  -17.3879   18.6444  -24.5234 N   0  0  0  0  0  0  0  0  0  0  0  0
  -16.3384   17.1452  -26.1008 C   0  0  0  0  0  0  0  0  0  0  0  0
  -15.0687   16.7978  -26.8365 C   0  0  0  0  0  0  0  0  0  0  0  0
  -12.1625   15.0002  -27.7635 C   0  0  0  0  0  0  0  0  0  0  0  0
   -9.6115   18.9245  -29.2843 C   0  0  0  0  0  0  0  0  0  0  0  0
  1  2  3  0
  2  3  1  0
  3  4  2  0
  4  5  1  0
  5  6  2  0
  6  7  1  0
  7  8  1  0
  8  9  1  0
  9 10  2  0
 10 11  1  0
 11 12  2  0
 12 13  1  0
 13 14  1  0
 14 15  2  0
 15 16  1  0
 16 17  1  0
 17 18  1  0
 18 19  1  0
 19 20  1  0
 20 21  1  0
 21 22  1  0
 21 23  1  0
 23 24  1  0
 16 25  2  0
  7 26  2  0
 26  3  1  0
 25  9  1  0
 25 13  1  0
 24 18  1  0
M  END
$$$$
CHEMBL1645466_diffdock_8
     RDKit          3D

 26 29  0  0  0  0  0  0  0  0999 V2000
   -9.7894   18.6899  -34.1157 C   0  0  0  0  0  0  0  0  0  0  0  0
   -9.7883   18.8039  -32.9326 C   0  0  0  0  0  0  0  0  0  0  0  0
   -9.7995   18.9392  -31.4981 C   0  0  0  0  0  0  0  0  0  0  0  0
   -9.1858   20.0562  -30.9343 C   0  0  0  0  0  0  0  0  0  0  0  0
   -9.2089   20.1861  -29.5576 C   0  0  0  0  0  0  0  0  0  0  0  0
   -9.8014   19.2780  -28.7339 C   0  0  0  0  0  0  0  0  0  0  0  0
  -10.4234   18.1486  -29.2932 C   0  0  0  0  0  0  0  0  0  0  0  0
  -11.0284   17.1924  -28.4374 N   0  0  0  0  0  0  0  0  0  0  0  0
  -11.1667   15.8498  -28.8341 C   0  0  0  0  0  0  0  0  0  0  0  0
  -10.6170   15.4119  -30.0113 N   0  0  0  0  0  0  0  0  0  0  0  0
  -10.7155   14.1470  -30.4358 C   0  0  0  0  0  0  0  0  0  0  0  0
  -11.3690   13.2803  -29.6916 N   0  0  0  0  0  0  0  0  0  0  0  0
  -11.9258   13.5928  -28.5598 N   0  0  0  0  0  0  0  0  0  0  0  0
  -12.6127   12.8401  -27.7050 C   0  0  0  0  0  0  0  0  0  0  0  0
  -12.9819   13.6395  -26.6782 C   0  0  0  0  0  0  0  0  0  0  0  0
  -12.5047   14.9447  -26.9030 C   0  0  0  0  0  0  0  0  0  0  0  0
  -12.7300   16.0884  -25.9804 C   0  0  0  0  0  0  0  0  0  0  0  0
  -14.0646   16.5366  -26.0848 N   0  0  0  0  0  0  0  0  0  0  0  0
  -14.3974   17.4836  -27.0665 C   0  0  0  0  0  0  0  0  0  0  0  0
  -15.3660   18.5307  -26.5680 C   0  0  0  0  0  0  0  0  0  0  0  0
  -15.4000   18.4838  -25.0513 C   0  0  0  0  0  0  0  0  0  0  0  0
  -16.3707   19.4722  -24.5925 N   0  0  0  0  0  0  0  0  0  0  0  0
  -15.8326   17.1169  -24.5748 C   0  0  0  0  0  0  0  0  0  0  0  0
  -15.0464   16.0121  -25.2345 C   0  0  0  0  0  0  0  0  0  0  0  0
  -11.8402   14.8825  -28.1022 C   0  0  0  0  0  0  0  0  0  0  0  0
  -10.4005   18.0157  -30.6606 C   0  0  0  0  0  0  0  0  0  0  0  0
  1  2  3  0
  2  3  1  0
  3  4  2  0
  4  5  1  0
  5  6  2  0
  6  7  1  0
  7  8  1  0
  8  9  1  0
  9 10  2  0
 10 11  1  0
 11 12  2  0
 12 13  1  0
 13 14  1  0
 14 15  2  0
 15 16  1  0
 16 17  1  0
 17 18  1  0
 18 19  1  0
 19 20  1  0
 20 21  1  0
 21 22  1  0
 21 23  1  0
 23 24  1  0
 16 25  2  0
  7 26  2  0
 26  3  1  0
 25  9  1  0
 25 13  1  0
 24 18  1  0
M  END
$$$$
CHEMBL1645466_diffdock_9
     RDKit          3D

 26 29  0  0  0  0  0  0  0  0999 V2000
   -7.1885   18.6794  -33.2399 C   0  0  0  0  0  0  0  0  0  0  0  0
   -7.8970   18.8967  -32.3106 C   0  0  0  0  0  0  0  0  0  0  0  0
   -8.7650   19.1523  -31.1893 C   0  0  0  0  0  0  0  0  0  0  0  0
   -8.5986   20.3413  -30.4817 C   0  0  0  0  0  0  0  0  0  0  0  0
   -9.4415   20.5862  -29.4128 C   0  0  0  0  0  0  0  0  0  0  0  0
  -10.4208   19.7236  -29.0242 C   0  0  0  0  0  0  0  0  0  0  0  0
  -10.5967   18.5223  -29.7320 C   0  0  0  0  0  0  0  0  0  0  0  0
  -11.6059   17.6140  -29.3206 N   0  0  0  0  0  0  0  0  0  0  0  0
  -11.4081   16.2238  -29.4057 C   0  0  0  0  0  0  0  0  0  0  0  0
  -10.2613   15.7168  -29.9605 N   0  0  0  0  0  0  0  0  0  0  0  0
  -10.0201   14.4051  -30.0647 C   0  0  0  0  0  0  0  0  0  0  0  0
  -10.9225   13.5594  -29.6146 N   0  0  0  0  0  0  0  0  0  0  0  0
  -12.0413   13.9362  -29.0715 N   0  0  0  0  0  0  0  0  0  0  0  0
  -13.0412   13.2122  -28.5763 C   0  0  0  0  0  0  0  0  0  0  0  0
  -13.9778   14.0799  -28.1294 C   0  0  0  0  0  0  0  0  0  0  0  0
  -13.5427   15.3995  -28.3557 C   0  0  0  0  0  0  0  0  0  0  0  0
  -14.3243   16.6116  -27.9952 C   0  0  0  0  0  0  0  0  0  0  0  0
  -14.4619   16.6973  -26.5927 N   0  0  0  0  0  0  0  0  0  0  0  0
  -15.7466   16.7604  -26.0300 C   0  0  0  0  0  0  0  0  0  0  0  0
  -15.8365   17.7352  -24.8792 C   0  0  0  0  0  0  0  0  0  0  0  0
  -14.6213   18.6440  -24.9111 C   0  0  0  0  0  0  0  0  0  0  0  0
  -14.7062   19.5487  -23.7692 N   0  0  0  0  0  0  0  0  0  0  0  0
  -13.3520   17.8325  -24.7978 C   0  0  0  0  0  0  0  0  0  0  0  0
  -13.3232   16.6861  -25.7770 C   0  0  0  0  0  0  0  0  0  0  0  0
  -12.3135   15.2749  -28.9532 C   0  0  0  0  0  0  0  0  0  0  0  0
   -9.7597   18.2752  -30.7932 C   0  0  0  0  0  0  0  0  0  0  0  0
  1  2  3  0
  2  3  1  0
  3  4  2  0
  4  5  1  0
  5  6  2  0
  6  7  1  0
  7  8  1  0
  8  9  1  0
  9 10  2  0
 10 11  1  0
 11 12  2  0
 12 13  1  0
 13 14  1  0
 14 15  2  0
 15 16  1  0
 16 17  1  0
 17 18  1  0
 18 19  1  0
 19 20  1  0
 20 21  1  0
 21 22  1  0
 21 23  1  0
 23 24  1  0
 16 25  2  0
  7 26  2  0
 26  3  1  0
 25  9  1  0
 25 13  1  0
 24 18  1  0
M  END
$$$$
CHEMBL1645466_diffdock_10
     RDKit          3D

 26 29  0  0  0  0  0  0  0  0999 V2000
  -17.7027   17.9182  -23.3038 C   0  0  0  0  0  0  0  0  0  0  0  0
  -17.1130   17.1033  -23.9371 C   0  0  0  0  0  0  0  0  0  0  0  0
  -16.4095   16.1104  -24.7086 C   0  0  0  0  0  0  0  0  0  0  0  0
  -16.6998   14.7668  -24.4793 C   0  0  0  0  0  0  0  0  0  0  0  0
  -16.0290   13.8185  -25.2301 C   0  0  0  0  0  0  0  0  0  0  0  0
  -15.1045   14.1369  -26.1778 C   0  0  0  0  0  0  0  0  0  0  0  0
  -14.8055   15.4892  -26.4166 C   0  0  0  0  0  0  0  0  0  0  0  0
  -13.8318   15.8244  -27.3924 N   0  0  0  0  0  0  0  0  0  0  0  0
  -13.0435   14.8305  -28.0007 C   0  0  0  0  0  0  0  0  0  0  0  0
  -13.3389   13.5034  -27.8243 N   0  0  0  0  0  0  0  0  0  0  0  0
  -12.6255   12.5176  -28.3803 C   0  0  0  0  0  0  0  0  0  0  0  0
  -11.5923   12.8325  -29.1323 N   0  0  0  0  0  0  0  0  0  0  0  0
  -11.2286   14.0586  -29.3630 N   0  0  0  0  0  0  0  0  0  0  0  0
  -10.2205   14.5319  -30.0902 C   0  0  0  0  0  0  0  0  0  0  0  0
  -10.2707   15.8813  -30.0097 C   0  0  0  0  0  0  0  0  0  0  0  0
  -11.3557   16.2642  -29.1985 C   0  0  0  0  0  0  0  0  0  0  0  0
  -11.7093   17.6736  -28.8847 C   0  0  0  0  0  0  0  0  0  0  0  0
  -11.2996   17.9928  -27.5718 N   0  0  0  0  0  0  0  0  0  0  0  0
  -12.2363   18.5183  -26.6676 C   0  0  0  0  0  0  0  0  0  0  0  0
  -11.6685   19.6264  -25.8116 C   0  0  0  0  0  0  0  0  0  0  0  0
  -10.3735   20.1129  -26.4361 C   0  0  0  0  0  0  0  0  0  0  0  0
   -9.8208   21.1521  -25.5733 N   0  0  0  0  0  0  0  0  0  0  0  0
   -9.3778   18.9811  -26.5364 C   0  0  0  0  0  0  0  0  0  0  0  0
   -9.9777   17.7537  -27.1748 C   0  0  0  0  0  0  0  0  0  0  0  0
  -11.9423   15.0876  -28.8046 C   0  0  0  0  0  0  0  0  0  0  0  0
  -15.4689   16.4337  -25.6710 C   0  0  0  0  0  0  0  0  0  0  0  0
  1  2  3  0
  2  3  1  0
  3  4  2  0
  4  5  1  0
  5  6  2  0
  6  7  1  0
  7  8  1  0
  8  9  1  0
  9 10  2  0
 10 11  1  0
 11 12  2  0
 12 13  1  0
 13 14  1  0
 14 15  2  0
 15 16  1  0
 16 17  1  0
 17 18  1  0
 18 19  1  0
 19 20  1  0
 20 21  1  0
 21 22  1  0
 21 23  1  0
 23 24  1  0
 16 25  2  0
  7 26  2  0
 26  3  1  0
 25  9  1  0
 25 13  1  0
 24 18  1  0
M  END
$$$$
CHEMBL3676384_diffdock_1
     RDKit          3D

 34 36  0  0  0  0  0  0  0  0999 V2000
  -15.6101   18.5312  -24.5053 C   0  0  0  0  0  0  0  0  0  0  0  0
  -15.8394   17.2605  -24.7825 C   0  0  0  0  0  0  0  0  0  0  0  0
  -15.1598   16.6222  -25.8960 C   0  0  0  0  0  0  0  0  0  0  0  0
  -14.3319   17.2773  -26.5915 O   0  0  0  0  0  0  0  0  0  0  0  0
  -15.3714   15.2700  -26.2648 N   0  0  0  0  0  0  0  0  0  0  0  0
  -14.4368   14.5379  -27.0467 C   0  0  0  0  0  0  0  0  0  0  0  0
  -13.4576   15.2237  -27.7770 C   0  0  0  0  0  0  0  0  0  0  0  0
  -12.5101   14.5777  -28.5638 C   0  0  0  0  0  0  0  0  0  0  0  0
  -11.5499   15.3167  -29.2759 C   0  0  0  0  0  0  0  0  0  0  0  0
  -11.5274   16.7147  -29.2079 N   0  0  0  0  0  0  0  0  0  0  0  0
  -10.6521   17.5854  -29.8990 C   0  0  0  0  0  0  0  0  0  0  0  0
   -9.8368   18.5050  -29.2876 C   0  0  0  0  0  0  0  0  0  0  0  0
   -9.0002   19.3291  -30.0424 C   0  0  0  0  0  0  0  0  0  0  0  0
   -8.9577   19.2556  -31.4124 C   0  0  0  0  0  0  0  0  0  0  0  0
   -7.8249   20.3693  -32.4579 Br  0  0  0  0  0  0  0  0  0  0  0  0
   -9.7690   18.3378  -32.0506 C   0  0  0  0  0  0  0  0  0  0  0  0
   -9.7187   18.2399  -33.7992 Cl  0  0  0  0  0  0  0  0  0  0  0  0
  -10.5864   17.5345  -31.2925 C   0  0  0  0  0  0  0  0  0  0  0  0
  -11.3618   16.6526  -31.9573 F   0  0  0  0  0  0  0  0  0  0  0  0
  -10.6845   14.5963  -30.0026 N   0  0  0  0  0  0  0  0  0  0  0  0
  -10.7149   13.2637  -30.0602 C   0  0  0  0  0  0  0  0  0  0  0  0
  -11.6269   12.5504  -29.3846 N   0  0  0  0  0  0  0  0  0  0  0  0
  -12.5334   13.1970  -28.6300 C   0  0  0  0  0  0  0  0  0  0  0  0
  -13.4887   12.5074  -27.9187 C   0  0  0  0  0  0  0  0  0  0  0  0
  -14.4141   13.1671  -27.1485 C   0  0  0  0  0  0  0  0  0  0  0  0
  -15.3941   12.4815  -26.4175 O   0  0  0  0  0  0  0  0  0  0  0  0
  -15.5156   11.0690  -26.5013 C   0  0  0  0  0  0  0  0  0  0  0  0
  -16.8872   10.6395  -26.0341 C   0  0  0  0  0  0  0  0  0  0  0  0
  -17.1610   11.0217  -24.6829 N   0  0  0  0  0  0  0  0  0  0  0  0
  -18.1239   12.0160  -24.3599 C   0  0  0  0  0  0  0  0  0  0  0  0
  -18.8579   12.4913  -25.2508 O   0  0  0  0  0  0  0  0  0  0  0  0
  -18.2402   12.4614  -23.0121 N   0  0  0  0  0  0  0  0  0  0  0  0
  -19.3036   13.3777  -22.6454 C   0  0  0  0  0  0  0  0  0  0  0  0
  -20.4313   12.6232  -22.0099 C   0  0  0  0  0  0  0  0  0  0  0  0
  1  2  2  0
  2  3  1  0
  3  4  2  0
  3  5  1  0
  5  6  1  0
  6  7  2  0
  7  8  1  0
  8  9  2  0
  9 10  1  0
 10 11  1  0
 11 12  2  0
 12 13  1  0
 13 14  2  0
 14 15  1  0
 14 16  1  0
 16 17  1  0
 16 18  2  0
 18 19  1  0
  9 20  1  0
 20 21  2  0
 21 22  1  0
 22 23  2  0
 23 24  1  0
 24 25  2  0
 25 26  1  0
 26 27  1  0
 27 28  1  0
 28 29  1  0
 29 30  1  0
 30 31  2  0
 30 32  1  0
 32 33  1  0
 33 34  1  0
 25  6  1  0
 23  8  1  0
 18 11  1  0
M  END
$$$$
CHEMBL3676384_diffdock_2
     RDKit          3D

 34 36  0  0  0  0  0  0  0  0999 V2000
  -16.0438   16.2266  -23.2282 C   0  0  0  0  0  0  0  0  0  0  0  0
  -15.0013   16.7609  -23.8379 C   0  0  0  0  0  0  0  0  0  0  0  0
  -14.6494   16.3427  -25.1834 C   0  0  0  0  0  0  0  0  0  0  0  0
  -13.9408   17.0925  -25.9142 O   0  0  0  0  0  0  0  0  0  0  0  0
  -15.0621   15.1097  -25.7479 N   0  0  0  0  0  0  0  0  0  0  0  0
  -14.2230   14.3436  -26.6021 C   0  0  0  0  0  0  0  0  0  0  0  0
  -13.2012   14.9786  -27.3200 C   0  0  0  0  0  0  0  0  0  0  0  0
  -12.3411   14.2971  -28.1743 C   0  0  0  0  0  0  0  0  0  0  0  0
  -11.3326   14.9855  -28.8701 C   0  0  0  0  0  0  0  0  0  0  0  0
  -11.1735   16.3680  -28.7179 N   0  0  0  0  0  0  0  0  0  0  0  0
  -10.2515   17.1975  -29.3989 C   0  0  0  0  0  0  0  0  0  0  0  0
   -9.3774   18.0533  -28.7761 C   0  0  0  0  0  0  0  0  0  0  0  0
   -8.4974   18.8400  -29.5213 C   0  0  0  0  0  0  0  0  0  0  0  0
   -8.4691   18.7918  -30.8928 C   0  0  0  0  0  0  0  0  0  0  0  0
   -7.2778   19.8555  -31.9254 Br  0  0  0  0  0  0  0  0  0  0  0  0
   -9.3394   17.9382  -31.5423 C   0  0  0  0  0  0  0  0  0  0  0  0
   -9.3074   17.8729  -33.2929 Cl  0  0  0  0  0  0  0  0  0  0  0  0
  -10.1988   17.1710  -30.7935 C   0  0  0  0  0  0  0  0  0  0  0  0
  -11.0313   16.3516  -31.4692 F   0  0  0  0  0  0  0  0  0  0  0  0
  -10.5597   14.2340  -29.6664 N   0  0  0  0  0  0  0  0  0  0  0  0
  -10.7201   12.9167  -29.8040 C   0  0  0  0  0  0  0  0  0  0  0  0
  -11.6791   12.2515  -29.1444 N   0  0  0  0  0  0  0  0  0  0  0  0
  -12.4992   12.9318  -28.3236 C   0  0  0  0  0  0  0  0  0  0  0  0
  -13.4981   12.2920  -27.6257 C   0  0  0  0  0  0  0  0  0  0  0  0
  -14.3354   12.9861  -26.7878 C   0  0  0  0  0  0  0  0  0  0  0  0
  -15.3578   12.3513  -26.0693 O   0  0  0  0  0  0  0  0  0  0  0  0
  -15.9358   11.1400  -26.5336 C   0  0  0  0  0  0  0  0  0  0  0  0
  -16.9981   10.6701  -25.5667 C   0  0  0  0  0  0  0  0  0  0  0  0
  -18.0152   11.6496  -25.3366 N   0  0  0  0  0  0  0  0  0  0  0  0
  -19.0177   11.9379  -26.3020 C   0  0  0  0  0  0  0  0  0  0  0  0
  -19.1192   11.2365  -27.3297 O   0  0  0  0  0  0  0  0  0  0  0  0
  -19.9016   13.0330  -26.0826 N   0  0  0  0  0  0  0  0  0  0  0  0
  -21.2031   13.0478  -26.7234 C   0  0  0  0  0  0  0  0  0  0  0  0
  -22.2227   12.4189  -25.8235 C   0  0  0  0  0  0  0  0  0  0  0  0
  1  2  2  0
  2  3  1  0
  3  4  2  0
  3  5  1  0
  5  6  1  0
  6  7  2  0
  7  8  1  0
  8  9  2  0
  9 10  1  0
 10 11  1  0
 11 12  2  0
 12 13  1  0
 13 14  2  0
 14 15  1  0
 14 16  1  0
 16 17  1  0
 16 18  2  0
 18 19  1  0
  9 20  1  0
 20 21  2  0
 21 22  1  0
 22 23  2  0
 23 24  1  0
 24 25  2  0
 25 26  1  0
 26 27  1  0
 27 28  1  0
 28 29  1  0
 29 30  1  0
 30 31  2  0
 30 32  1  0
 32 33  1  0
 33 34  1  0
 25  6  1  0
 23  8  1  0
 18 11  1  0
M  END
$$$$
CHEMBL3676384_diffdock_3
     RDKit          3D

 34 36  0  0  0  0  0  0  0  0999 V2000
  -15.1043   17.7289  -23.7811 C   0  0  0  0  0  0  0  0  0  0  0  0
  -15.7164   17.1892  -24.8194 C   0  0  0  0  0  0  0  0  0  0  0  0
  -14.9430   16.5753  -25.8845 C   0  0  0  0  0  0  0  0  0  0  0  0
  -13.8975   17.1414  -26.3145 O   0  0  0  0  0  0  0  0  0  0  0  0
  -15.2956   15.3441  -26.4919 N   0  0  0  0  0  0  0  0  0  0  0  0
  -14.3671   14.5689  -27.2386 C   0  0  0  0  0  0  0  0  0  0  0  0
  -13.2524   15.1908  -27.8160 C   0  0  0  0  0  0  0  0  0  0  0  0
  -12.3017   14.4999  -28.5595 C   0  0  0  0  0  0  0  0  0  0  0  0
  -11.2021   15.1753  -29.1163 C   0  0  0  0  0  0  0  0  0  0  0  0
  -11.0417   16.5540  -28.9343 N   0  0  0  0  0  0  0  0  0  0  0  0
  -10.0381   17.3749  -29.5006 C   0  0  0  0  0  0  0  0  0  0  0  0
   -9.2244   18.2098  -28.7760 C   0  0  0  0  0  0  0  0  0  0  0  0
   -8.2561   18.9893  -29.4112 C   0  0  0  0  0  0  0  0  0  0  0  0
   -8.0786   18.9545  -30.7719 C   0  0  0  0  0  0  0  0  0  0  0  0
   -6.7653   20.0086  -31.6555 Br  0  0  0  0  0  0  0  0  0  0  0  0
   -8.8856   18.1219  -31.5227 C   0  0  0  0  0  0  0  0  0  0  0  0
   -8.6632   18.0737  -33.2599 Cl  0  0  0  0  0  0  0  0  0  0  0  0
   -9.8335   17.3616  -30.8814 C   0  0  0  0  0  0  0  0  0  0  0  0
  -10.5995   16.5629  -31.6536 F   0  0  0  0  0  0  0  0  0  0  0  0
  -10.3464   14.4155  -29.8138 N   0  0  0  0  0  0  0  0  0  0  0  0
  -10.5089   13.1019  -29.9810 C   0  0  0  0  0  0  0  0  0  0  0  0
  -11.5544   12.4491  -29.4538 N   0  0  0  0  0  0  0  0  0  0  0  0
  -12.4612   13.1383  -28.7384 C   0  0  0  0  0  0  0  0  0  0  0  0
  -13.5508   12.5114  -28.1780 C   0  0  0  0  0  0  0  0  0  0  0  0
  -14.4766   13.2146  -27.4477 C   0  0  0  0  0  0  0  0  0  0  0  0
  -15.5920   12.5929  -26.8698 O   0  0  0  0  0  0  0  0  0  0  0  0
  -16.0705   11.3477  -27.3570 C   0  0  0  0  0  0  0  0  0  0  0  0
  -17.4619   11.0859  -26.8283 C   0  0  0  0  0  0  0  0  0  0  0  0
  -17.4610   10.4451  -25.5492 N   0  0  0  0  0  0  0  0  0  0  0  0
  -17.9990   11.0698  -24.3915 C   0  0  0  0  0  0  0  0  0  0  0  0
  -18.8935   11.9334  -24.5030 O   0  0  0  0  0  0  0  0  0  0  0  0
  -17.5063   10.6994  -23.1075 N   0  0  0  0  0  0  0  0  0  0  0  0
  -18.3100   10.9536  -21.9267 C   0  0  0  0  0  0  0  0  0  0  0  0
  -17.6636   10.3332  -20.7257 C   0  0  0  0  0  0  0  0  0  0  0  0
  1  2  2  0
  2  3  1  0
  3  4  2  0
  3  5  1  0
  5  6  1  0
  6  7  2  0
  7  8  1  0
  8  9  2  0
  9 10  1  0
 10 11  1  0
 11 12  2  0
 12 13  1  0
 13 14  2  0
 14 15  1  0
 14 16  1  0
 16 17  1  0
 16 18  2  0
 18 19  1  0
  9 20  1  0
 20 21  2  0
 21 22  1  0
 22 23  2  0
 23 24  1  0
 24 25  2  0
 25 26  1  0
 26 27  1  0
 27 28  1  0
 28 29  1  0
 29 30  1  0
 30 31  2  0
 30 32  1  0
 32 33  1  0
 33 34  1  0
 25  6  1  0
 23  8  1  0
 18 11  1  0
M  END
$$$$
CHEMBL3676384_diffdock_4
     RDKit          3D

 34 36  0  0  0  0  0  0  0  0999 V2000
  -15.4555   19.2294  -24.5392 C   0  0  0  0  0  0  0  0  0  0  0  0
  -15.6856   17.9364  -24.6768 C   0  0  0  0  0  0  0  0  0  0  0  0
  -14.9986   17.1785  -25.7078 C   0  0  0  0  0  0  0  0  0  0  0  0
  -14.2394   17.7696  -26.5279 O   0  0  0  0  0  0  0  0  0  0  0  0
  -15.1282   15.7750  -25.8585 N   0  0  0  0  0  0  0  0  0  0  0  0
  -14.2582   15.0136  -26.6856 C   0  0  0  0  0  0  0  0  0  0  0  0
  -13.2809   15.6661  -27.4482 C   0  0  0  0  0  0  0  0  0  0  0  0
  -12.3945   14.9902  -28.2798 C   0  0  0  0  0  0  0  0  0  0  0  0
  -11.4332   15.6965  -29.0229 C   0  0  0  0  0  0  0  0  0  0  0  0
  -11.3481   17.0913  -28.9414 N   0  0  0  0  0  0  0  0  0  0  0  0
  -10.4317   17.9282  -29.6208 C   0  0  0  0  0  0  0  0  0  0  0  0
   -9.5052   18.7254  -28.9960 C   0  0  0  0  0  0  0  0  0  0  0  0
   -8.6348   19.5240  -29.7398 C   0  0  0  0  0  0  0  0  0  0  0  0
   -8.6681   19.5459  -31.1119 C   0  0  0  0  0  0  0  0  0  0  0  0
   -7.4909   20.6270  -32.1426 Br  0  0  0  0  0  0  0  0  0  0  0  0
   -9.5919   18.7521  -31.7634 C   0  0  0  0  0  0  0  0  0  0  0  0
   -9.6385   18.7762  -33.5147 Cl  0  0  0  0  0  0  0  0  0  0  0  0
  -10.4410   17.9722  -31.0160 C   0  0  0  0  0  0  0  0  0  0  0  0
  -11.3270   17.2128  -31.6936 F   0  0  0  0  0  0  0  0  0  0  0  0
  -10.6295   14.9489  -29.7919 N   0  0  0  0  0  0  0  0  0  0  0  0
  -10.7192   13.6196  -29.8621 C   0  0  0  0  0  0  0  0  0  0  0  0
  -11.6328   12.9374  -29.1571 N   0  0  0  0  0  0  0  0  0  0  0  0
  -12.4795   13.6126  -28.3594 C   0  0  0  0  0  0  0  0  0  0  0  0
  -13.4340   12.9555  -27.6168 C   0  0  0  0  0  0  0  0  0  0  0  0
  -14.2984   13.6444  -26.8025 C   0  0  0  0  0  0  0  0  0  0  0  0
  -15.2764   12.9920  -26.0393 O   0  0  0  0  0  0  0  0  0  0  0  0
  -15.7855   11.7251  -26.4299 C   0  0  0  0  0  0  0  0  0  0  0  0
  -16.3930   11.0222  -25.2379 C   0  0  0  0  0  0  0  0  0  0  0  0
  -17.7807   11.3222  -25.0613 N   0  0  0  0  0  0  0  0  0  0  0  0
  -18.7981   10.6409  -25.7829 C   0  0  0  0  0  0  0  0  0  0  0  0
  -19.2323   11.1144  -26.8533 O   0  0  0  0  0  0  0  0  0  0  0  0
  -19.3139    9.4158  -25.2713 N   0  0  0  0  0  0  0  0  0  0  0  0
  -20.4989    8.8282  -25.8673 C   0  0  0  0  0  0  0  0  0  0  0  0
  -21.4960    8.4951  -24.7996 C   0  0  0  0  0  0  0  0  0  0  0  0
  1  2  2  0
  2  3  1  0
  3  4  2  0
  3  5  1  0
  5  6  1  0
  6  7  2  0
  7  8  1  0
  8  9  2  0
  9 10  1  0
 10 11  1  0
 11 12  2  0
 12 13  1  0
 13 14  2  0
 14 15  1  0
 14 16  1  0
 16 17  1  0
 16 18  2  0
 18 19  1  0
  9 20  1  0
 20 21  2  0
 21 22  1  0
 22 23  2  0
 23 24  1  0
 24 25  2  0
 25 26  1  0
 26 27  1  0
 27 28  1  0
 28 29  1  0
 29 30  1  0
 30 31  2  0
 30 32  1  0
 32 33  1  0
 33 34  1  0
 25  6  1  0
 23  8  1  0
 18 11  1  0
M  END
$$$$
CHEMBL3676384_diffdock_5
     RDKit          3D

 34 36  0  0  0  0  0  0  0  0999 V2000
  -16.3356   18.9548  -25.2480 C   0  0  0  0  0  0  0  0  0  0  0  0
  -16.1980   17.6604  -25.0254 C   0  0  0  0  0  0  0  0  0  0  0  0
  -15.3833   16.8497  -25.9133 C   0  0  0  0  0  0  0  0  0  0  0  0
  -14.9334   17.3436  -26.9865 O   0  0  0  0  0  0  0  0  0  0  0  0
  -15.0496   15.4983  -25.6458 N   0  0  0  0  0  0  0  0  0  0  0  0
  -14.1790   14.7481  -26.4825 C   0  0  0  0  0  0  0  0  0  0  0  0
  -13.2029   15.4112  -27.2376 C   0  0  0  0  0  0  0  0  0  0  0  0
  -12.3161   14.7465  -28.0778 C   0  0  0  0  0  0  0  0  0  0  0  0
  -11.3561   15.4630  -28.8128 C   0  0  0  0  0  0  0  0  0  0  0  0
  -11.2729   16.8570  -28.7143 N   0  0  0  0  0  0  0  0  0  0  0  0
  -10.3479   17.7018  -29.3720 C   0  0  0  0  0  0  0  0  0  0  0  0
   -9.5999   18.6652  -28.7422 C   0  0  0  0  0  0  0  0  0  0  0  0
   -8.7073   19.4595  -29.4640 C   0  0  0  0  0  0  0  0  0  0  0  0
   -8.5415   19.3126  -30.8187 C   0  0  0  0  0  0  0  0  0  0  0  0
   -7.3308   20.3848  -31.8193 Br  0  0  0  0  0  0  0  0  0  0  0  0
   -9.2832   18.3496  -31.4748 C   0  0  0  0  0  0  0  0  0  0  0  0
   -9.0755   18.1579  -33.2039 Cl  0  0  0  0  0  0  0  0  0  0  0  0
  -10.1571   17.5765  -30.7491 C   0  0  0  0  0  0  0  0  0  0  0  0
  -10.8610   16.6485  -31.4304 F   0  0  0  0  0  0  0  0  0  0  0  0
  -10.5518   14.7259  -29.5912 N   0  0  0  0  0  0  0  0  0  0  0  0
  -10.6397   13.3975  -29.6774 C   0  0  0  0  0  0  0  0  0  0  0  0
  -11.5521   12.7056  -28.9803 N   0  0  0  0  0  0  0  0  0  0  0  0
  -12.3993   13.3699  -28.1741 C   0  0  0  0  0  0  0  0  0  0  0  0
  -13.3525   12.7026  -27.4391 C   0  0  0  0  0  0  0  0  0  0  0  0
  -14.2174   13.3803  -26.6160 C   0  0  0  0  0  0  0  0  0  0  0  0
  -15.1941   12.7175  -25.8602 O   0  0  0  0  0  0  0  0  0  0  0  0
  -16.0662   11.7706  -26.4599 C   0  0  0  0  0  0  0  0  0  0  0  0
  -16.7516   10.9500  -25.3918 C   0  0  0  0  0  0  0  0  0  0  0  0
  -18.1264   11.3036  -25.2133 N   0  0  0  0  0  0  0  0  0  0  0  0
  -18.5333   12.3166  -24.3033 C   0  0  0  0  0  0  0  0  0  0  0  0
  -18.7499   13.4763  -24.7113 O   0  0  0  0  0  0  0  0  0  0  0  0
  -18.6901   11.9929  -22.9251 N   0  0  0  0  0  0  0  0  0  0  0  0
  -19.2235   12.9832  -22.0087 C   0  0  0  0  0  0  0  0  0  0  0  0
  -20.7104   12.8323  -21.9026 C   0  0  0  0  0  0  0  0  0  0  0  0
  1  2  2  0
  2  3  1  0
  3  4  2  0
  3  5  1  0
  5  6  1  0
  6  7  2  0
  7  8  1  0
  8  9  2  0
  9 10  1  0
 10 11  1  0
 11 12  2  0
 12 13  1  0
 13 14  2  0
 14 15  1  0
 14 16  1  0
 16 17  1  0
 16 18  2  0
 18 19  1  0
  9 20  1  0
 20 21  2  0
 21 22  1  0
 22 23  2  0
 23 24  1  0
 24 25  2  0
 25 26  1  0
 26 27  1  0
 27 28  1  0
 28 29  1  0
 29 30  1  0
 30 31  2  0
 30 32  1  0
 32 33  1  0
 33 34  1  0
 25  6  1  0
 23  8  1  0
 18 11  1  0
M  END
$$$$
CHEMBL3676384_diffdock_6
     RDKit          3D

 34 36  0  0  0  0  0  0  0  0999 V2000
  -14.9124   16.6098  -22.1795 C   0  0  0  0  0  0  0  0  0  0  0  0
  -15.1991   16.5431  -23.4669 C   0  0  0  0  0  0  0  0  0  0  0  0
  -14.3054   15.8510  -24.3788 C   0  0  0  0  0  0  0  0  0  0  0  0
  -13.0533   15.9580  -24.2407 O   0  0  0  0  0  0  0  0  0  0  0  0
  -14.7606   15.0379  -25.4469 N   0  0  0  0  0  0  0  0  0  0  0  0
  -13.8695   14.3428  -26.3091 C   0  0  0  0  0  0  0  0  0  0  0  0
  -12.9671   15.0654  -27.1004 C   0  0  0  0  0  0  0  0  0  0  0  0
  -12.0657   14.4567  -27.9671 C   0  0  0  0  0  0  0  0  0  0  0  0
  -11.1823   15.2317  -28.7379 C   0  0  0  0  0  0  0  0  0  0  0  0
  -11.1914   16.6287  -28.6493 N   0  0  0  0  0  0  0  0  0  0  0  0
  -10.4252   17.5343  -29.4205 C   0  0  0  0  0  0  0  0  0  0  0  0
   -9.6313   18.5203  -28.8895 C   0  0  0  0  0  0  0  0  0  0  0  0
   -8.9051   19.3753  -29.7204 C   0  0  0  0  0  0  0  0  0  0  0  0
   -8.9535   19.2676  -31.0880 C   0  0  0  0  0  0  0  0  0  0  0  0
   -7.9717   20.4226  -32.2363 Br  0  0  0  0  0  0  0  0  0  0  0  0
   -9.7455   18.2830  -31.6459 C   0  0  0  0  0  0  0  0  0  0  0  0
   -9.8108   18.1413  -33.3910 Cl  0  0  0  0  0  0  0  0  0  0  0  0
  -10.4536   17.4501  -30.8136 C   0  0  0  0  0  0  0  0  0  0  0  0
  -11.2141   16.5030  -31.4014 F   0  0  0  0  0  0  0  0  0  0  0  0
  -10.3561   14.5455  -29.5397 N   0  0  0  0  0  0  0  0  0  0  0  0
  -10.3559   13.2136  -29.6164 C   0  0  0  0  0  0  0  0  0  0  0  0
  -11.1947   12.4662  -28.8851 N   0  0  0  0  0  0  0  0  0  0  0  0
  -12.0577   13.0770  -28.0537 C   0  0  0  0  0  0  0  0  0  0  0  0
  -12.9377   12.3515  -27.2833 C   0  0  0  0  0  0  0  0  0  0  0  0
  -13.8186   12.9747  -26.4345 C   0  0  0  0  0  0  0  0  0  0  0  0
  -14.7217   12.2522  -25.6425 O   0  0  0  0  0  0  0  0  0  0  0  0
  -15.4905   11.1915  -26.1909 C   0  0  0  0  0  0  0  0  0  0  0  0
  -16.4507   10.6586  -25.1527 C   0  0  0  0  0  0  0  0  0  0  0  0
  -17.2889   11.6749  -24.5946 N   0  0  0  0  0  0  0  0  0  0  0  0
  -18.5288   12.0397  -25.1857 C   0  0  0  0  0  0  0  0  0  0  0  0
  -19.0327   11.3261  -26.0776 O   0  0  0  0  0  0  0  0  0  0  0  0
  -19.1866   13.2252  -24.7493 N   0  0  0  0  0  0  0  0  0  0  0  0
  -20.4027   13.6594  -25.4107 C   0  0  0  0  0  0  0  0  0  0  0  0
  -21.5773   13.4600  -24.5021 C   0  0  0  0  0  0  0  0  0  0  0  0
  1  2  2  0
  2  3  1  0
  3  4  2  0
  3  5  1  0
  5  6  1  0
  6  7  2  0
  7  8  1  0
  8  9  2  0
  9 10  1  0
 10 11  1  0
 11 12  2  0
 12 13  1  0
 13 14  2  0
 14 15  1  0
 14 16  1  0
 16 17  1  0
 16 18  2  0
 18 19  1  0
  9 20  1  0
 20 21  2  0
 21 22  1  0
 22 23  2  0
 23 24  1  0
 24 25  2  0
 25 26  1  0
 26 27  1  0
 27 28  1  0
 28 29  1  0
 29 30  1  0
 30 31  2  0
 30 32  1  0
 32 33  1  0
 33 34  1  0
 25  6  1  0
 23  8  1  0
 18 11  1  0
M  END
$$$$
CHEMBL3676384_diffdock_7
     RDKit          3D

 34 36  0  0  0  0  0  0  0  0999 V2000
  -15.6893   18.3415  -24.4825 C   0  0  0  0  0  0  0  0  0  0  0  0
  -16.1918   17.5051  -25.3723 C   0  0  0  0  0  0  0  0  0  0  0  0
  -15.3101   16.7660  -26.2587 C   0  0  0  0  0  0  0  0  0  0  0  0
  -14.3785   17.3651  -26.8683 O   0  0  0  0  0  0  0  0  0  0  0  0
  -15.4303   15.3730  -26.4917 N   0  0  0  0  0  0  0  0  0  0  0  0
  -14.4566   14.6348  -27.2179 C   0  0  0  0  0  0  0  0  0  0  0  0
  -13.3405   15.2952  -27.7479 C   0  0  0  0  0  0  0  0  0  0  0  0
  -12.3470   14.6416  -28.4689 C   0  0  0  0  0  0  0  0  0  0  0  0
  -11.2482   15.3549  -28.9781 C   0  0  0  0  0  0  0  0  0  0  0  0
  -11.1315   16.7343  -28.7703 N   0  0  0  0  0  0  0  0  0  0  0  0
  -10.0799   17.5738  -29.2077 C   0  0  0  0  0  0  0  0  0  0  0  0
   -8.8745   17.1179  -29.6805 C   0  0  0  0  0  0  0  0  0  0  0  0
   -7.8863   18.0132  -30.0935 C   0  0  0  0  0  0  0  0  0  0  0  0
   -8.0758   19.3718  -30.0451 C   0  0  0  0  0  0  0  0  0  0  0  0
   -6.7419   20.6072  -30.6031 Br  0  0  0  0  0  0  0  0  0  0  0  0
   -9.2807   19.8547  -29.5730 C   0  0  0  0  0  0  0  0  0  0  0  0
   -9.5277   21.5881  -29.5090 Cl  0  0  0  0  0  0  0  0  0  0  0  0
  -10.2424   18.9597  -29.1705 C   0  0  0  0  0  0  0  0  0  0  0  0
  -11.4038   19.4753  -28.7165 F   0  0  0  0  0  0  0  0  0  0  0  0
  -10.3492   14.6292  -29.6574 N   0  0  0  0  0  0  0  0  0  0  0  0
  -10.4703   13.3146  -29.8495 C   0  0  0  0  0  0  0  0  0  0  0  0
  -11.5147   12.6259  -29.3677 N   0  0  0  0  0  0  0  0  0  0  0  0
  -12.4634   13.2793  -28.6733 C   0  0  0  0  0  0  0  0  0  0  0  0
  -13.5536   12.6148  -28.1595 C   0  0  0  0  0  0  0  0  0  0  0  0
  -14.5221   13.2814  -27.4507 C   0  0  0  0  0  0  0  0  0  0  0  0
  -15.6389   12.6212  -26.9202 O   0  0  0  0  0  0  0  0  0  0  0  0
  -15.6038   11.2284  -26.6451 C   0  0  0  0  0  0  0  0  0  0  0  0
  -16.9084   10.7919  -26.0193 C   0  0  0  0  0  0  0  0  0  0  0  0
  -16.8837   10.8372  -24.5896 N   0  0  0  0  0  0  0  0  0  0  0  0
  -17.8975   11.4903  -23.8373 C   0  0  0  0  0  0  0  0  0  0  0  0
  -18.9603   11.8420  -24.3897 O   0  0  0  0  0  0  0  0  0  0  0  0
  -17.6860   11.7373  -22.4507 N   0  0  0  0  0  0  0  0  0  0  0  0
  -18.6860   12.4596  -21.6869 C   0  0  0  0  0  0  0  0  0  0  0  0
  -18.4624   13.9352  -21.8196 C   0  0  0  0  0  0  0  0  0  0  0  0
  1  2  2  0
  2  3  1  0
  3  4  2  0
  3  5  1  0
  5  6  1  0
  6  7  2  0
  7  8  1  0
  8  9  2  0
  9 10  1  0
 10 11  1  0
 11 12  2  0
 12 13  1  0
 13 14  2  0
 14 15  1  0
 14 16  1  0
 16 17  1  0
 16 18  2  0
 18 19  1  0
  9 20  1  0
 20 21  2  0
 21 22  1  0
 22 23  2  0
 23 24  1  0
 24 25  2  0
 25 26  1  0
 26 27  1  0
 27 28  1  0
 28 29  1  0
 29 30  1  0
 30 31  2  0
 30 32  1  0
 32 33  1  0
 33 34  1  0
 25  6  1  0
 23  8  1  0
 18 11  1  0
M  END
$$$$
CHEMBL3676384_diffdock_8
     RDKit          3D

 34 36  0  0  0  0  0  0  0  0999 V2000
  -17.0143   18.1668  -25.1531 C   0  0  0  0  0  0  0  0  0  0  0  0
  -15.9649   17.4076  -24.8955 C   0  0  0  0  0  0  0  0  0  0  0  0
  -15.3342   16.6484  -25.9608 C   0  0  0  0  0  0  0  0  0  0  0  0
  -15.1041   17.1954  -27.0772 O   0  0  0  0  0  0  0  0  0  0  0  0
  -14.9478   15.2913  -25.8256 N   0  0  0  0  0  0  0  0  0  0  0  0
  -14.1995   14.6087  -26.8231 C   0  0  0  0  0  0  0  0  0  0  0  0
  -13.1609   15.2749  -27.4864 C   0  0  0  0  0  0  0  0  0  0  0  0
  -12.3855   14.6743  -28.4724 C   0  0  0  0  0  0  0  0  0  0  0  0
  -11.3553   15.3908  -29.1054 C   0  0  0  0  0  0  0  0  0  0  0  0
  -11.0891   16.7203  -28.7573 N   0  0  0  0  0  0  0  0  0  0  0  0
  -10.0086   17.5162  -29.2052 C   0  0  0  0  0  0  0  0  0  0  0  0
   -8.7922   17.0155  -29.5978 C   0  0  0  0  0  0  0  0  0  0  0  0
   -7.7751   17.8696  -30.0277 C   0  0  0  0  0  0  0  0  0  0  0  0
   -7.9461   19.2307  -30.0756 C   0  0  0  0  0  0  0  0  0  0  0  0
   -6.5728   20.4103  -30.6581 Br  0  0  0  0  0  0  0  0  0  0  0  0
   -9.1616   19.7583  -29.6854 C   0  0  0  0  0  0  0  0  0  0  0  0
   -9.3851   21.4951  -29.7446 Cl  0  0  0  0  0  0  0  0  0  0  0  0
  -10.1517   18.9035  -29.2650 C   0  0  0  0  0  0  0  0  0  0  0  0
  -11.3225   19.4620  -28.8932 F   0  0  0  0  0  0  0  0  0  0  0  0
  -10.6698   14.7182  -30.0403 N   0  0  0  0  0  0  0  0  0  0  0  0
  -10.9319   13.4509  -30.3643 C   0  0  0  0  0  0  0  0  0  0  0  0
  -11.9124   12.7596  -29.7661 N   0  0  0  0  0  0  0  0  0  0  0  0
  -12.6493   13.3613  -28.8152 C   0  0  0  0  0  0  0  0  0  0  0  0
  -13.6662   12.6919  -28.1734 C   0  0  0  0  0  0  0  0  0  0  0  0
  -14.4185   13.3057  -27.2029 C   0  0  0  0  0  0  0  0  0  0  0  0
  -15.4578   12.6397  -26.5388 O   0  0  0  0  0  0  0  0  0  0  0  0
  -15.7939   11.2988  -26.8641 C   0  0  0  0  0  0  0  0  0  0  0  0
  -17.0776   10.9048  -26.1707 C   0  0  0  0  0  0  0  0  0  0  0  0
  -16.9191   10.7339  -24.7591 N   0  0  0  0  0  0  0  0  0  0  0  0
  -17.5283   11.6093  -23.8196 C   0  0  0  0  0  0  0  0  0  0  0  0
  -18.3156   12.4968  -24.2080 O   0  0  0  0  0  0  0  0  0  0  0  0
  -17.2300   11.4616  -22.4348 N   0  0  0  0  0  0  0  0  0  0  0  0
  -18.2079   11.8618  -21.4406 C   0  0  0  0  0  0  0  0  0  0  0  0
  -17.6726   13.0007  -20.6273 C   0  0  0  0  0  0  0  0  0  0  0  0
  1  2  2  0
  2  3  1  0
  3  4  2  0
  3  5  1  0
  5  6  1  0
  6  7  2  0
  7  8  1  0
  8  9  2  0
  9 10  1  0
 10 11  1  0
 11 12  2  0
 12 13  1  0
 13 14  2  0
 14 15  1  0
 14 16  1  0
 16 17  1  0
 16 18  2  0
 18 19  1  0
  9 20  1  0
 20 21  2  0
 21 22  1  0
 22 23  2  0
 23 24  1  0
 24 25  2  0
 25 26  1  0
 26 27  1  0
 27 28  1  0
 28 29  1  0
 29 30  1  0
 30 31  2  0
 30 32  1  0
 32 33  1  0
 33 34  1  0
 25  6  1  0
 23  8  1  0
 18 11  1  0
M  END
$$$$
CHEMBL3676384_diffdock_9
     RDKit          3D

 34 36  0  0  0  0  0  0  0  0999 V2000
  -16.4252   18.6177  -25.2020 C   0  0  0  0  0  0  0  0  0  0  0  0
  -15.3871   17.8484  -24.9292 C   0  0  0  0  0  0  0  0  0  0  0  0
  -14.7344   17.1004  -25.9894 C   0  0  0  0  0  0  0  0  0  0  0  0
  -13.9255   17.6814  -26.7681 O   0  0  0  0  0  0  0  0  0  0  0  0
  -14.9527   15.7181  -26.2144 N   0  0  0  0  0  0  0  0  0  0  0  0
  -14.1346   14.9492  -27.0864 C   0  0  0  0  0  0  0  0  0  0  0  0
  -13.0951   15.5722  -27.7891 C   0  0  0  0  0  0  0  0  0  0  0  0
  -12.2537   14.8873  -28.6592 C   0  0  0  0  0  0  0  0  0  0  0  0
  -11.2260   15.5636  -29.3386 C   0  0  0  0  0  0  0  0  0  0  0  0
  -11.0285   16.9371  -29.1539 N   0  0  0  0  0  0  0  0  0  0  0  0
   -9.9978   17.7302  -29.7112 C   0  0  0  0  0  0  0  0  0  0  0  0
   -8.6697   17.6093  -29.3858 C   0  0  0  0  0  0  0  0  0  0  0  0
   -7.7122   18.4319  -29.9818 C   0  0  0  0  0  0  0  0  0  0  0  0
   -8.0542   19.3857  -30.9079 C   0  0  0  0  0  0  0  0  0  0  0  0
   -6.7645   20.5156  -31.7307 Br  0  0  0  0  0  0  0  0  0  0  0  0
   -9.3846   19.5263  -31.2516 C   0  0  0  0  0  0  0  0  0  0  0  0
   -9.8264   20.7422  -32.4332 Cl  0  0  0  0  0  0  0  0  0  0  0  0
  -10.3139   18.7084  -30.6554 C   0  0  0  0  0  0  0  0  0  0  0  0
  -11.6015   18.8804  -31.0208 F   0  0  0  0  0  0  0  0  0  0  0  0
  -10.4738   14.8097  -30.1523 N   0  0  0  0  0  0  0  0  0  0  0  0
  -10.6707   13.5010  -30.3209 C   0  0  0  0  0  0  0  0  0  0  0  0
  -11.6483   12.8475  -29.6772 N   0  0  0  0  0  0  0  0  0  0  0  0
  -12.4497   13.5309  -28.8406 C   0  0  0  0  0  0  0  0  0  0  0  0
  -13.4665   12.9029  -28.1580 C   0  0  0  0  0  0  0  0  0  0  0  0
  -14.2847   13.6001  -27.3040 C   0  0  0  0  0  0  0  0  0  0  0  0
  -15.3249   12.9773  -26.6006 O   0  0  0  0  0  0  0  0  0  0  0  0
  -15.8522   11.7293  -27.0265 C   0  0  0  0  0  0  0  0  0  0  0  0
  -17.0387   11.3502  -26.1705 C   0  0  0  0  0  0  0  0  0  0  0  0
  -16.8041   11.5483  -24.7731 N   0  0  0  0  0  0  0  0  0  0  0  0
  -17.6040   12.4241  -23.9900 C   0  0  0  0  0  0  0  0  0  0  0  0
  -18.5829   13.0057  -24.5018 O   0  0  0  0  0  0  0  0  0  0  0  0
  -17.2758   12.6286  -22.6192 N   0  0  0  0  0  0  0  0  0  0  0  0
  -18.1708   13.3924  -21.7705 C   0  0  0  0  0  0  0  0  0  0  0  0
  -17.9456   14.8589  -21.9798 C   0  0  0  0  0  0  0  0  0  0  0  0
  1  2  2  0
  2  3  1  0
  3  4  2  0
  3  5  1  0
  5  6  1  0
  6  7  2  0
  7  8  1  0
  8  9  2  0
  9 10  1  0
 10 11  1  0
 11 12  2  0
 12 13  1  0
 13 14  2  0
 14 15  1  0
 14 16  1  0
 16 17  1  0
 16 18  2  0
 18 19  1  0
  9 20  1  0
 20 21  2  0
 21 22  1  0
 22 23  2  0
 23 24  1  0
 24 25  2  0
 25 26  1  0
 26 27  1  0
 27 28  1  0
 28 29  1  0
 29 30  1  0
 30 31  2  0
 30 32  1  0
 32 33  1  0
 33 34  1  0
 25  6  1  0
 23  8  1  0
 18 11  1  0
M  END
$$$$
CHEMBL3676384_diffdock_10
     RDKit          3D

 34 36  0  0  0  0  0  0  0  0999 V2000
  -15.0857   19.0106  -24.4367 C   0  0  0  0  0  0  0  0  0  0  0  0
  -15.5675   17.9293  -25.0221 C   0  0  0  0  0  0  0  0  0  0  0  0
  -14.7690   17.2116  -26.0002 C   0  0  0  0  0  0  0  0  0  0  0  0
  -13.6479   17.6709  -26.3616 O   0  0  0  0  0  0  0  0  0  0  0  0
  -15.1782   15.9914  -26.5943 N   0  0  0  0  0  0  0  0  0  0  0  0
  -14.2721   15.1335  -27.2753 C   0  0  0  0  0  0  0  0  0  0  0  0
  -13.0799   15.6564  -27.7929 C   0  0  0  0  0  0  0  0  0  0  0  0
  -12.1452   14.8808  -28.4703 C   0  0  0  0  0  0  0  0  0  0  0  0
  -10.9651   15.4586  -28.9689 C   0  0  0  0  0  0  0  0  0  0  0  0
  -10.7068   16.8233  -28.7944 N   0  0  0  0  0  0  0  0  0  0  0  0
   -9.6402   17.5650  -29.3548 C   0  0  0  0  0  0  0  0  0  0  0  0
   -8.3127   17.2747  -29.1603 C   0  0  0  0  0  0  0  0  0  0  0  0
   -7.3182   18.0573  -29.7496 C   0  0  0  0  0  0  0  0  0  0  0  0
   -7.6221   19.1379  -30.5396 C   0  0  0  0  0  0  0  0  0  0  0  0
   -6.2818   20.2159  -31.3510 Br  0  0  0  0  0  0  0  0  0  0  0  0
   -8.9511   19.4499  -30.7502 C   0  0  0  0  0  0  0  0  0  0  0  0
   -9.3444   20.8283  -31.7578 Cl  0  0  0  0  0  0  0  0  0  0  0  0
   -9.9171   18.6692  -30.1626 C   0  0  0  0  0  0  0  0  0  0  0  0
  -11.2018   19.0103  -30.3951 F   0  0  0  0  0  0  0  0  0  0  0  0
  -10.1331   14.6225  -29.6053 N   0  0  0  0  0  0  0  0  0  0  0  0
  -10.3892   13.3231  -29.7660 C   0  0  0  0  0  0  0  0  0  0  0  0
  -11.5120   12.7632  -29.2939 N   0  0  0  0  0  0  0  0  0  0  0  0
  -12.4015   13.5332  -28.6420 C   0  0  0  0  0  0  0  0  0  0  0  0
  -13.5680   13.0030  -28.1397 C   0  0  0  0  0  0  0  0  0  0  0  0
  -14.4761   13.7886  -27.4742 C   0  0  0  0  0  0  0  0  0  0  0  0
  -15.6690   13.2660  -26.9560 O   0  0  0  0  0  0  0  0  0  0  0  0
  -15.9269   11.8696  -26.9775 C   0  0  0  0  0  0  0  0  0  0  0  0
  -17.3060   11.5901  -26.4260 C   0  0  0  0  0  0  0  0  0  0  0  0
  -17.2800   11.0966  -25.0833 N   0  0  0  0  0  0  0  0  0  0  0  0
  -17.2812    9.7059  -24.7900 C   0  0  0  0  0  0  0  0  0  0  0  0
  -16.5053    8.9367  -25.3939 O   0  0  0  0  0  0  0  0  0  0  0  0
  -18.1754    9.2031  -23.8020 N   0  0  0  0  0  0  0  0  0  0  0  0
  -18.1555    7.7926  -23.4633 C   0  0  0  0  0  0  0  0  0  0  0  0
  -18.9684    7.0177  -24.4550 C   0  0  0  0  0  0  0  0  0  0  0  0
  1  2  2  0
  2  3  1  0
  3  4  2  0
  3  5  1  0
  5  6  1  0
  6  7  2  0
  7  8  1  0
  8  9  2  0
  9 10  1  0
 10 11  1  0
 11 12  2  0
 12 13  1  0
 13 14  2  0
 14 15  1  0
 14 16  1  0
 16 17  1  0
 16 18  2  0
 18 19  1  0
  9 20  1  0
 20 21  2  0
 21 22  1  0
 22 23  2  0
 23 24  1  0
 24 25  2  0
 25 26  1  0
 26 27  1  0
 27 28  1  0
 28 29  1  0
 29 30  1  0
 30 31  2  0
 30 32  1  0
 32 33  1  0
 33 34  1  0
 25  6  1  0
 23  8  1  0
 18 11  1  0
M  END
$$$$
CHEMBL4745521_diffdock_1
     RDKit          3D

 39 42  0  0  0  0  0  0  0  0999 V2000
  -19.7554    9.1590  -25.8580 C   0  0  0  0  0  0  0  0  0  0  0  0
  -19.0426   10.4159  -25.5801 N   0  0  0  0  0  4  0  0  0  0  0  0
  -19.7461   11.1647  -24.5996 C   0  0  0  0  0  0  0  0  0  0  0  0
  -17.6538   10.2100  -25.4134 C   0  0  0  0  0  0  0  0  0  0  0  0
  -16.7852   11.3906  -25.1794 C   0  0  0  0  0  0  0  0  0  0  0  0
  -15.9915   11.8181  -26.3675 C   0  0  0  0  0  0  0  0  0  0  0  0
  -15.5336   13.1028  -26.4079 O   0  0  0  0  0  0  0  0  0  0  0  0
  -14.5630   13.7553  -27.0709 C   0  0  0  0  0  0  0  0  0  0  0  0
  -13.6454   13.1096  -27.8488 C   0  0  0  0  0  0  0  0  0  0  0  0
  -12.6540   13.7921  -28.5280 C   0  0  0  0  0  0  0  0  0  0  0  0
  -11.7538   13.1042  -29.2957 N   0  0  0  0  0  0  0  0  0  0  0  0
  -10.7822   13.7473  -29.9635 C   0  0  0  0  0  0  0  0  0  0  0  0
  -10.7367   15.0635  -29.8455 N   0  0  0  0  0  0  0  0  0  0  0  0
  -11.5741   15.8269  -29.1171 C   0  0  0  0  0  0  0  0  0  0  0  0
  -11.4161   17.2336  -29.0736 N   0  0  0  0  0  0  0  0  0  0  0  0
  -10.6292   17.9797  -30.0047 C   0  0  0  0  0  0  0  0  0  0  0  0
   -9.8766   19.0383  -29.5740 C   0  0  0  0  0  0  0  0  0  0  0  0
   -9.0913   19.7506  -30.4958 C   0  0  0  0  0  0  0  0  0  0  0  0
   -9.1073   19.3558  -31.8087 C   0  0  0  0  0  0  0  0  0  0  0  0
   -8.3436   20.0452  -32.7187 F   0  0  0  0  0  0  0  0  0  0  0  0
   -9.8580   18.2982  -32.2475 C   0  0  0  0  0  0  0  0  0  0  0  0
   -9.8376   17.8388  -33.9486 Cl  0  0  0  0  0  0  0  0  0  0  0  0
  -10.6278   17.5965  -31.3551 C   0  0  0  0  0  0  0  0  0  0  0  0
  -12.5781   15.1647  -28.4265 C   0  0  0  0  0  0  0  0  0  0  0  0
  -13.4961   15.8472  -27.6447 C   0  0  0  0  0  0  0  0  0  0  0  0
  -14.4715   15.1431  -26.9797 C   0  0  0  0  0  0  0  0  0  0  0  0
  -15.4160   15.8568  -26.1644 N   0  0  0  0  0  0  0  0  0  0  0  0
  -15.1011   17.0369  -25.4947 C   0  0  0  0  0  0  0  0  0  0  0  0
  -14.0184   17.6096  -25.8331 O   0  0  0  0  0  0  0  0  0  0  0  0
  -15.9024   17.6574  -24.4524 C   0  0  0  0  0  0  0  0  0  0  0  0
  -16.3862   18.9452  -24.6596 C   0  0  0  0  0  0  0  0  0  0  0  0
  -17.1495   19.6218  -23.7474 C   0  0  0  0  0  0  0  0  0  0  0  0
  -17.6056   20.9327  -24.0286 N   0  0  0  0  0  4  0  0  0  0  0  0
  -17.3621   21.4525  -25.1184 O   0  0  0  0  0  0  0  0  0  0  0  0
  -18.3160   21.6100  -23.0782 O   0  0  0  0  0  1  0  0  0  0  0  0
  -17.4581   18.9938  -22.5552 C   0  0  0  0  0  0  0  0  0  0  0  0
  -16.9925   17.7353  -22.3379 C   0  0  0  0  0  0  0  0  0  0  0  0
  -16.2223   17.0675  -23.2711 C   0  0  0  0  0  0  0  0  0  0  0  0
  -15.8061   15.8112  -22.9573 F   0  0  0  0  0  0  0  0  0  0  0  0
  2  1  1  0
  2  3  1  0
  2  4  1  0
  4  5  1  0
  5  6  1  0
  6  7  1  0
  7  8  1  0
  8  9  2  0
  9 10  1  0
 10 11  2  0
 11 12  1  0
 12 13  2  0
 13 14  1  0
 14 15  1  0
 15 16  1  0
 16 17  2  0
 17 18  1  0
 18 19  2  0
 19 20  1  0
 19 21  1  0
 21 22  1  0
 21 23  2  0
 14 24  2  0
 24 25  1  0
 25 26  2  0
 26 27  1  0
 27 28  1  0
 28 29  2  0
 28 30  1  0
 30 31  2  0
 31 32  1  0
 32 33  1  0
 33 34  2  0
 33 35  1  0
 32 36  2  0
 36 37  1  0
 37 38  2  0
 38 39  1  0
 26  8  1  0
 38 30  1  0
 24 10  1  0
 23 16  1  0
M  CHG  3   2   1  33   1  35  -1
M  END
$$$$
CHEMBL4745521_diffdock_2
     RDKit          3D

 39 42  0  0  0  0  0  0  0  0999 V2000
  -17.8236   10.4362  -22.4451 C   0  0  0  0  0  0  0  0  0  0  0  0
  -18.0351   11.1964  -23.6872 N   0  0  0  0  0  4  0  0  0  0  0  0
  -18.1357   12.5825  -23.3951 C   0  0  0  0  0  0  0  0  0  0  0  0
  -17.1615   10.7786  -24.7174 C   0  0  0  0  0  0  0  0  0  0  0  0
  -17.2519   11.4489  -26.0386 C   0  0  0  0  0  0  0  0  0  0  0  0
  -15.9346   11.7417  -26.6736 C   0  0  0  0  0  0  0  0  0  0  0  0
  -15.5092   13.0377  -26.7063 O   0  0  0  0  0  0  0  0  0  0  0  0
  -14.4910   13.6993  -27.2835 C   0  0  0  0  0  0  0  0  0  0  0  0
  -13.5732   13.0793  -28.0818 C   0  0  0  0  0  0  0  0  0  0  0  0
  -12.5325   13.7712  -28.6719 C   0  0  0  0  0  0  0  0  0  0  0  0
  -11.6341   13.1091  -29.4641 N   0  0  0  0  0  0  0  0  0  0  0  0
  -10.6151   13.7617  -30.0467 C   0  0  0  0  0  0  0  0  0  0  0  0
  -10.5217   15.0612  -29.8213 N   0  0  0  0  0  0  0  0  0  0  0  0
  -11.3530   15.7990  -29.0602 C   0  0  0  0  0  0  0  0  0  0  0  0
  -11.1411   17.1898  -28.8981 N   0  0  0  0  0  0  0  0  0  0  0  0
  -10.0975   17.9211  -29.5453 C   0  0  0  0  0  0  0  0  0  0  0  0
   -9.4160   18.8927  -28.8642 C   0  0  0  0  0  0  0  0  0  0  0  0
   -8.3783   19.5901  -29.5053 C   0  0  0  0  0  0  0  0  0  0  0  0
   -8.0824   19.2690  -30.8049 C   0  0  0  0  0  0  0  0  0  0  0  0
   -7.0700   19.9445  -31.4417 F   0  0  0  0  0  0  0  0  0  0  0  0
   -8.7598   18.2986  -31.4933 C   0  0  0  0  0  0  0  0  0  0  0  0
   -8.3334   17.9312  -33.1632 Cl  0  0  0  0  0  0  0  0  0  0  0  0
   -9.7744   17.6122  -30.8759 C   0  0  0  0  0  0  0  0  0  0  0  0
  -12.4059   15.1269  -28.4575 C   0  0  0  0  0  0  0  0  0  0  0  0
  -13.3228   15.7833  -27.6523 C   0  0  0  0  0  0  0  0  0  0  0  0
  -14.3479   15.0703  -27.0775 C   0  0  0  0  0  0  0  0  0  0  0  0
  -15.2912   15.7562  -26.2373 N   0  0  0  0  0  0  0  0  0  0  0  0
  -14.9188   16.7388  -25.3229 C   0  0  0  0  0  0  0  0  0  0  0  0
  -13.7516   17.2237  -25.4552 O   0  0  0  0  0  0  0  0  0  0  0  0
  -15.7486   17.2471  -24.2428 C   0  0  0  0  0  0  0  0  0  0  0  0
  -15.1639   17.4720  -23.0007 C   0  0  0  0  0  0  0  0  0  0  0  0
  -15.8505   17.9489  -21.9173 C   0  0  0  0  0  0  0  0  0  0  0  0
  -15.1868   18.1519  -20.6828 N   0  0  0  0  0  4  0  0  0  0  0  0
  -15.8118   18.5631  -19.7042 O   0  0  0  0  0  0  0  0  0  0  0  0
  -13.8496   17.8870  -20.5928 O   0  0  0  0  0  1  0  0  0  0  0  0
  -17.1976   18.2229  -22.0626 C   0  0  0  0  0  0  0  0  0  0  0  0
  -17.7834   18.0080  -23.2702 C   0  0  0  0  0  0  0  0  0  0  0  0
  -17.0737   17.5255  -24.3536 C   0  0  0  0  0  0  0  0  0  0  0  0
  -17.7528   17.3453  -25.5182 F   0  0  0  0  0  0  0  0  0  0  0  0
  2  1  1  0
  2  3  1  0
  2  4  1  0
  4  5  1  0
  5  6  1  0
  6  7  1  0
  7  8  1  0
  8  9  2  0
  9 10  1  0
 10 11  2  0
 11 12  1  0
 12 13  2  0
 13 14  1  0
 14 15  1  0
 15 16  1  0
 16 17  2  0
 17 18  1  0
 18 19  2  0
 19 20  1  0
 19 21  1  0
 21 22  1  0
 21 23  2  0
 14 24  2  0
 24 25  1  0
 25 26  2  0
 26 27  1  0
 27 28  1  0
 28 29  2  0
 28 30  1  0
 30 31  2  0
 31 32  1  0
 32 33  1  0
 33 34  2  0
 33 35  1  0
 32 36  2  0
 36 37  1  0
 37 38  2  0
 38 39  1  0
 26  8  1  0
 38 30  1  0
 24 10  1  0
 23 16  1  0
M  CHG  3   2   1  33   1  35  -1
M  END
$$$$
CHEMBL4745521_diffdock_3
     RDKit          3D

 39 42  0  0  0  0  0  0  0  0999 V2000
  -19.5473   10.4336  -25.8236 C   0  0  0  0  0  0  0  0  0  0  0  0
  -18.8653   11.7374  -25.8025 N   0  0  0  0  0  4  0  0  0  0  0  0
  -19.6924   12.7061  -25.1745 C   0  0  0  0  0  0  0  0  0  0  0  0
  -17.5176   11.6219  -25.3909 C   0  0  0  0  0  0  0  0  0  0  0  0
  -16.6642   10.5946  -26.0386 C   0  0  0  0  0  0  0  0  0  0  0  0
  -15.6783   11.1385  -27.0165 C   0  0  0  0  0  0  0  0  0  0  0  0
  -14.9527   12.2365  -26.6565 O   0  0  0  0  0  0  0  0  0  0  0  0
  -13.9677   12.9614  -27.2150 C   0  0  0  0  0  0  0  0  0  0  0  0
  -12.9774   12.3962  -27.9659 C   0  0  0  0  0  0  0  0  0  0  0  0
  -11.9720   13.1527  -28.5375 C   0  0  0  0  0  0  0  0  0  0  0  0
  -10.9980   12.5441  -29.2818 N   0  0  0  0  0  0  0  0  0  0  0  0
  -10.0114   13.2600  -29.8456 C   0  0  0  0  0  0  0  0  0  0  0  0
  -10.0253   14.5676  -29.6497 N   0  0  0  0  0  0  0  0  0  0  0  0
  -10.9371   15.2560  -28.9360 C   0  0  0  0  0  0  0  0  0  0  0  0
  -10.8375   16.6623  -28.8016 N   0  0  0  0  0  0  0  0  0  0  0  0
   -9.8632   17.4635  -29.4738 C   0  0  0  0  0  0  0  0  0  0  0  0
   -9.6321   18.7490  -29.0658 C   0  0  0  0  0  0  0  0  0  0  0  0
   -8.6570   19.5192  -29.7216 C   0  0  0  0  0  0  0  0  0  0  0  0
   -7.9645   18.9495  -30.7586 C   0  0  0  0  0  0  0  0  0  0  0  0
   -7.0091   19.6933  -31.4071 F   0  0  0  0  0  0  0  0  0  0  0  0
   -8.1903   17.6642  -31.1730 C   0  0  0  0  0  0  0  0  0  0  0  0
   -7.2679   16.9873  -32.5132 Cl  0  0  0  0  0  0  0  0  0  0  0  0
   -9.1401   16.9043  -30.5390 C   0  0  0  0  0  0  0  0  0  0  0  0
  -11.9566   14.5186  -28.3528 C   0  0  0  0  0  0  0  0  0  0  0  0
  -12.9491   15.1203  -27.5959 C   0  0  0  0  0  0  0  0  0  0  0  0
  -13.9369   14.3437  -27.0387 C   0  0  0  0  0  0  0  0  0  0  0  0
  -14.9591   14.9735  -26.2484 N   0  0  0  0  0  0  0  0  0  0  0  0
  -14.6789   15.8744  -25.2236 C   0  0  0  0  0  0  0  0  0  0  0  0
  -13.4970   16.3396  -25.1847 O   0  0  0  0  0  0  0  0  0  0  0  0
  -15.6192   16.3188  -24.2077 C   0  0  0  0  0  0  0  0  0  0  0  0
  -15.1212   16.7867  -22.9959 C   0  0  0  0  0  0  0  0  0  0  0  0
  -15.9150   17.2295  -21.9730 C   0  0  0  0  0  0  0  0  0  0  0  0
  -15.3352   17.6909  -20.7662 N   0  0  0  0  0  4  0  0  0  0  0  0
  -14.1131   17.8155  -20.6744 O   0  0  0  0  0  0  0  0  0  0  0  0
  -16.1464   17.9943  -19.7096 O   0  0  0  0  0  1  0  0  0  0  0  0
  -17.2857   17.2121  -22.1511 C   0  0  0  0  0  0  0  0  0  0  0  0
  -17.7876   16.7576  -23.3297 C   0  0  0  0  0  0  0  0  0  0  0  0
  -16.9701   16.3138  -24.3519 C   0  0  0  0  0  0  0  0  0  0  0  0
  -17.5713   15.8790  -25.4919 F   0  0  0  0  0  0  0  0  0  0  0  0
  2  1  1  0
  2  3  1  0
  2  4  1  0
  4  5  1  0
  5  6  1  0
  6  7  1  0
  7  8  1  0
  8  9  2  0
  9 10  1  0
 10 11  2  0
 11 12  1  0
 12 13  2  0
 13 14  1  0
 14 15  1  0
 15 16  1  0
 16 17  2  0
 17 18  1  0
 18 19  2  0
 19 20  1  0
 19 21  1  0
 21 22  1  0
 21 23  2  0
 14 24  2  0
 24 25  1  0
 25 26  2  0
 26 27  1  0
 27 28  1  0
 28 29  2  0
 28 30  1  0
 30 31  2  0
 31 32  1  0
 32 33  1  0
 33 34  2  0
 33 35  1  0
 32 36  2  0
 36 37  1  0
 37 38  2  0
 38 39  1  0
 26  8  1  0
 38 30  1  0
 24 10  1  0
 23 16  1  0
M  CHG  3   2   1  33   1  35  -1
M  END
$$$$
CHEMBL4745521_diffdock_4
     RDKit          3D

 39 42  0  0  0  0  0  0  0  0999 V2000
  -19.4895   10.0796  -25.0384 C   0  0  0  0  0  0  0  0  0  0  0  0
  -18.7381   11.1756  -24.4063 N   0  0  0  0  0  4  0  0  0  0  0  0
  -19.0000   11.2003  -23.0108 C   0  0  0  0  0  0  0  0  0  0  0  0
  -17.3960   11.2199  -24.8488 C   0  0  0  0  0  0  0  0  0  0  0  0
  -17.1268   11.1330  -26.3060 C   0  0  0  0  0  0  0  0  0  0  0  0
  -15.7246   11.4591  -26.6951 C   0  0  0  0  0  0  0  0  0  0  0  0
  -15.3482   12.7705  -26.7088 O   0  0  0  0  0  0  0  0  0  0  0  0
  -14.3809   13.4852  -27.3096 C   0  0  0  0  0  0  0  0  0  0  0  0
  -13.4258   12.9089  -28.0969 C   0  0  0  0  0  0  0  0  0  0  0  0
  -12.4382   13.6550  -28.7116 C   0  0  0  0  0  0  0  0  0  0  0  0
  -11.4995   13.0356  -29.4915 N   0  0  0  0  0  0  0  0  0  0  0  0
  -10.5308   13.7412  -30.0975 C   0  0  0  0  0  0  0  0  0  0  0  0
  -10.5267   15.0497  -29.9073 N   0  0  0  0  0  0  0  0  0  0  0  0
  -11.4039   15.7484  -29.1609 C   0  0  0  0  0  0  0  0  0  0  0  0
  -11.2881   17.1544  -29.0372 N   0  0  0  0  0  0  0  0  0  0  0  0
  -10.4562   17.9652  -29.8697 C   0  0  0  0  0  0  0  0  0  0  0  0
   -9.7092   18.9719  -29.3210 C   0  0  0  0  0  0  0  0  0  0  0  0
   -8.8795   19.7484  -30.1473 C   0  0  0  0  0  0  0  0  0  0  0  0
   -8.8478   19.4672  -31.4887 C   0  0  0  0  0  0  0  0  0  0  0  0
   -8.0404   20.2201  -32.3061 F   0  0  0  0  0  0  0  0  0  0  0  0
   -9.5925   18.4622  -32.0454 C   0  0  0  0  0  0  0  0  0  0  0  0
   -9.5096   18.1491  -33.7775 Cl  0  0  0  0  0  0  0  0  0  0  0  0
  -10.4054   17.6985  -31.2469 C   0  0  0  0  0  0  0  0  0  0  0  0
  -12.4049   15.0216  -28.5340 C   0  0  0  0  0  0  0  0  0  0  0  0
  -13.3616   15.6343  -27.7409 C   0  0  0  0  0  0  0  0  0  0  0  0
  -14.3323   14.8679  -27.1410 C   0  0  0  0  0  0  0  0  0  0  0  0
  -15.3172   15.5092  -26.3135 N   0  0  0  0  0  0  0  0  0  0  0  0
  -14.9885   16.4001  -25.2943 C   0  0  0  0  0  0  0  0  0  0  0  0
  -13.8095   16.8739  -25.3136 O   0  0  0  0  0  0  0  0  0  0  0  0
  -15.8756   16.8253  -24.2239 C   0  0  0  0  0  0  0  0  0  0  0  0
  -15.3163   17.2748  -23.0321 C   0  0  0  0  0  0  0  0  0  0  0  0
  -16.0568   17.6986  -21.9622 C   0  0  0  0  0  0  0  0  0  0  0  0
  -15.4160   18.1421  -20.7797 N   0  0  0  0  0  4  0  0  0  0  0  0
  -16.0168   18.8651  -19.9838 O   0  0  0  0  0  0  0  0  0  0  0  0
  -14.1276   17.7588  -20.5352 O   0  0  0  0  0  1  0  0  0  0  0  0
  -17.4349   17.6803  -22.0693 C   0  0  0  0  0  0  0  0  0  0  0  0
  -17.9963   17.2435  -23.2275 C   0  0  0  0  0  0  0  0  0  0  0  0
  -17.2321   16.8188  -24.2979 C   0  0  0  0  0  0  0  0  0  0  0  0
  -17.8908   16.4009  -25.4121 F   0  0  0  0  0  0  0  0  0  0  0  0
  2  1  1  0
  2  3  1  0
  2  4  1  0
  4  5  1  0
  5  6  1  0
  6  7  1  0
  7  8  1  0
  8  9  2  0
  9 10  1  0
 10 11  2  0
 11 12  1  0
 12 13  2  0
 13 14  1  0
 14 15  1  0
 15 16  1  0
 16 17  2  0
 17 18  1  0
 18 19  2  0
 19 20  1  0
 19 21  1  0
 21 22  1  0
 21 23  2  0
 14 24  2  0
 24 25  1  0
 25 26  2  0
 26 27  1  0
 27 28  1  0
 28 29  2  0
 28 30  1  0
 30 31  2  0
 31 32  1  0
 32 33  1  0
 33 34  2  0
 33 35  1  0
 32 36  2  0
 36 37  1  0
 37 38  2  0
 38 39  1  0
 26  8  1  0
 38 30  1  0
 24 10  1  0
 23 16  1  0
M  CHG  3   2   1  33   1  35  -1
M  END
$$$$
CHEMBL4745521_diffdock_5
     RDKit          3D

 39 42  0  0  0  0  0  0  0  0999 V2000
  -19.1440    8.7426  -25.5474 C   0  0  0  0  0  0  0  0  0  0  0  0
  -18.3739    9.9270  -25.1357 N   0  0  0  0  0  4  0  0  0  0  0  0
  -19.0903   10.6499  -24.1453 C   0  0  0  0  0  0  0  0  0  0  0  0
  -17.0137    9.6183  -24.9038 C   0  0  0  0  0  0  0  0  0  0  0  0
  -16.0799   10.7268  -24.5839 C   0  0  0  0  0  0  0  0  0  0  0  0
  -15.2314   11.1686  -25.7280 C   0  0  0  0  0  0  0  0  0  0  0  0
  -14.7537   12.4467  -25.7197 O   0  0  0  0  0  0  0  0  0  0  0  0
  -13.8876   13.1523  -26.4677 C   0  0  0  0  0  0  0  0  0  0  0  0
  -12.9409   12.5566  -27.2506 C   0  0  0  0  0  0  0  0  0  0  0  0
  -12.0581   13.2932  -28.0174 C   0  0  0  0  0  0  0  0  0  0  0  0
  -11.1237   12.6544  -28.7868 N   0  0  0  0  0  0  0  0  0  0  0  0
  -10.2559   13.3506  -29.5389 C   0  0  0  0  0  0  0  0  0  0  0  0
  -10.3458   14.6692  -29.5016 N   0  0  0  0  0  0  0  0  0  0  0  0
  -11.2274   15.3869  -28.7790 C   0  0  0  0  0  0  0  0  0  0  0  0
  -11.2184   16.8023  -28.8268 N   0  0  0  0  0  0  0  0  0  0  0  0
  -10.3304   17.5698  -29.6425 C   0  0  0  0  0  0  0  0  0  0  0  0
  -10.3395   18.9362  -29.5693 C   0  0  0  0  0  0  0  0  0  0  0  0
   -9.4472   19.6784  -30.3611 C   0  0  0  0  0  0  0  0  0  0  0  0
   -8.5899   18.9999  -31.1883 C   0  0  0  0  0  0  0  0  0  0  0  0
   -7.7134   19.7153  -31.9672 F   0  0  0  0  0  0  0  0  0  0  0  0
   -8.5750   17.6331  -31.2676 C   0  0  0  0  0  0  0  0  0  0  0  0
   -7.4494   16.8177  -32.3508 Cl  0  0  0  0  0  0  0  0  0  0  0  0
   -9.4422   16.8998  -30.4984 C   0  0  0  0  0  0  0  0  0  0  0  0
  -12.1244   14.6700  -28.0014 C   0  0  0  0  0  0  0  0  0  0  0  0
  -13.0753   15.3024  -27.2167 C   0  0  0  0  0  0  0  0  0  0  0  0
  -13.9406   14.5452  -26.4636 C   0  0  0  0  0  0  0  0  0  0  0  0
  -14.9197   15.2080  -25.6461 N   0  0  0  0  0  0  0  0  0  0  0  0
  -14.5899   16.1821  -24.7065 C   0  0  0  0  0  0  0  0  0  0  0  0
  -13.4277   16.6878  -24.7978 O   0  0  0  0  0  0  0  0  0  0  0  0
  -15.4586   16.6600  -23.6433 C   0  0  0  0  0  0  0  0  0  0  0  0
  -15.1347   17.8506  -23.0008 C   0  0  0  0  0  0  0  0  0  0  0  0
  -15.8815   18.3912  -21.9896 C   0  0  0  0  0  0  0  0  0  0  0  0
  -15.4877   19.6082  -21.3816 N   0  0  0  0  0  4  0  0  0  0  0  0
  -14.5413   20.2507  -21.8386 O   0  0  0  0  0  0  0  0  0  0  0  0
  -16.1688   20.0575  -20.2858 O   0  0  0  0  0  1  0  0  0  0  0  0
  -17.0197   17.7202  -21.5832 C   0  0  0  0  0  0  0  0  0  0  0  0
  -17.3494   16.5553  -22.2013 C   0  0  0  0  0  0  0  0  0  0  0  0
  -16.5825   16.0241  -23.2210 C   0  0  0  0  0  0  0  0  0  0  0  0
  -16.9988   14.8534  -23.7742 F   0  0  0  0  0  0  0  0  0  0  0  0
  2  1  1  0
  2  3  1  0
  2  4  1  0
  4  5  1  0
  5  6  1  0
  6  7  1  0
  7  8  1  0
  8  9  2  0
  9 10  1  0
 10 11  2  0
 11 12  1  0
 12 13  2  0
 13 14  1  0
 14 15  1  0
 15 16  1  0
 16 17  2  0
 17 18  1  0
 18 19  2  0
 19 20  1  0
 19 21  1  0
 21 22  1  0
 21 23  2  0
 14 24  2  0
 24 25  1  0
 25 26  2  0
 26 27  1  0
 27 28  1  0
 28 29  2  0
 28 30  1  0
 30 31  2  0
 31 32  1  0
 32 33  1  0
 33 34  2  0
 33 35  1  0
 32 36  2  0
 36 37  1  0
 37 38  2  0
 38 39  1  0
 26  8  1  0
 38 30  1  0
 24 10  1  0
 23 16  1  0
M  CHG  3   2   1  33   1  35  -1
M  END
$$$$
CHEMBL4745521_diffdock_6
     RDKit          3D

 39 42  0  0  0  0  0  0  0  0999 V2000
  -18.2212    9.8033  -23.8016 C   0  0  0  0  0  0  0  0  0  0  0  0
  -17.8401   11.2028  -24.0493 N   0  0  0  0  0  4  0  0  0  0  0  0
  -18.1296   11.9930  -22.9054 C   0  0  0  0  0  0  0  0  0  0  0  0
  -16.5606   11.3049  -24.6421 C   0  0  0  0  0  0  0  0  0  0  0  0
  -16.2648   10.4755  -25.8370 C   0  0  0  0  0  0  0  0  0  0  0  0
  -15.1145   10.9584  -26.6541 C   0  0  0  0  0  0  0  0  0  0  0  0
  -14.9428   12.3049  -26.7923 O   0  0  0  0  0  0  0  0  0  0  0  0
  -14.0424   13.1007  -27.3953 C   0  0  0  0  0  0  0  0  0  0  0  0
  -13.0415   12.6093  -28.1830 C   0  0  0  0  0  0  0  0  0  0  0  0
  -12.1237   13.4381  -28.8000 C   0  0  0  0  0  0  0  0  0  0  0  0
  -11.1353   12.9022  -29.5803 N   0  0  0  0  0  0  0  0  0  0  0  0
  -10.2328   13.6892  -30.1884 C   0  0  0  0  0  0  0  0  0  0  0  0
  -10.3431   14.9932  -29.9998 N   0  0  0  0  0  0  0  0  0  0  0  0
  -11.2772   15.6134  -29.2532 C   0  0  0  0  0  0  0  0  0  0  0  0
  -11.2849   17.0244  -29.1313 N   0  0  0  0  0  0  0  0  0  0  0  0
  -10.3399   17.8877  -29.7673 C   0  0  0  0  0  0  0  0  0  0  0  0
  -10.3370   19.2271  -29.4870 C   0  0  0  0  0  0  0  0  0  0  0  0
   -9.3894   20.0618  -30.1031 C   0  0  0  0  0  0  0  0  0  0  0  0
   -8.4920   19.4986  -30.9731 C   0  0  0  0  0  0  0  0  0  0  0  0
   -7.5613   20.3052  -31.5815 F   0  0  0  0  0  0  0  0  0  0  0  0
   -8.4888   18.1597  -31.2592 C   0  0  0  0  0  0  0  0  0  0  0  0
   -7.3097   17.4944  -32.3871 Cl  0  0  0  0  0  0  0  0  0  0  0  0
   -9.4098   17.3367  -30.6625 C   0  0  0  0  0  0  0  0  0  0  0  0
  -12.2100   14.8026  -28.6241 C   0  0  0  0  0  0  0  0  0  0  0  0
  -13.2158   15.3303  -27.8305 C   0  0  0  0  0  0  0  0  0  0  0  0
  -14.1149   14.4826  -27.2284 C   0  0  0  0  0  0  0  0  0  0  0  0
  -15.1512   15.0364  -26.4004 N   0  0  0  0  0  0  0  0  0  0  0  0
  -14.9364   16.0971  -25.5234 C   0  0  0  0  0  0  0  0  0  0  0  0
  -13.8411   16.7281  -25.6539 O   0  0  0  0  0  0  0  0  0  0  0  0
  -15.8540   16.5341  -24.4839 C   0  0  0  0  0  0  0  0  0  0  0  0
  -15.4350   17.5176  -23.5937 C   0  0  0  0  0  0  0  0  0  0  0  0
  -16.2163   18.0023  -22.5802 C   0  0  0  0  0  0  0  0  0  0  0  0
  -15.7202   19.0046  -21.7115 N   0  0  0  0  0  4  0  0  0  0  0  0
  -16.4350   19.4574  -20.8163 O   0  0  0  0  0  0  0  0  0  0  0  0
  -14.4434   19.4608  -21.8795 O   0  0  0  0  0  1  0  0  0  0  0  0
  -17.4911   17.4887  -22.4311 C   0  0  0  0  0  0  0  0  0  0  0  0
  -17.9149   16.5269  -23.2931 C   0  0  0  0  0  0  0  0  0  0  0  0
  -17.1112   16.0492  -24.3110 C   0  0  0  0  0  0  0  0  0  0  0  0
  -17.6295   15.0863  -25.1198 F   0  0  0  0  0  0  0  0  0  0  0  0
  2  1  1  0
  2  3  1  0
  2  4  1  0
  4  5  1  0
  5  6  1  0
  6  7  1  0
  7  8  1  0
  8  9  2  0
  9 10  1  0
 10 11  2  0
 11 12  1  0
 12 13  2  0
 13 14  1  0
 14 15  1  0
 15 16  1  0
 16 17  2  0
 17 18  1  0
 18 19  2  0
 19 20  1  0
 19 21  1  0
 21 22  1  0
 21 23  2  0
 14 24  2  0
 24 25  1  0
 25 26  2  0
 26 27  1  0
 27 28  1  0
 28 29  2  0
 28 30  1  0
 30 31  2  0
 31 32  1  0
 32 33  1  0
 33 34  2  0
 33 35  1  0
 32 36  2  0
 36 37  1  0
 37 38  2  0
 38 39  1  0
 26  8  1  0
 38 30  1  0
 24 10  1  0
 23 16  1  0
M  CHG  3   2   1  33   1  35  -1
M  END
$$$$
CHEMBL4745521_diffdock_7
     RDKit          3D

 39 42  0  0  0  0  0  0  0  0999 V2000
  -16.5988    8.4691  -24.2083 C   0  0  0  0  0  0  0  0  0  0  0  0
  -17.2612    9.6266  -23.5866 N   0  0  0  0  0  4  0  0  0  0  0  0
  -17.1023    9.5754  -22.1763 C   0  0  0  0  0  0  0  0  0  0  0  0
  -16.9629   10.8320  -24.2628 C   0  0  0  0  0  0  0  0  0  0  0  0
  -17.0778   10.8618  -25.7423 C   0  0  0  0  0  0  0  0  0  0  0  0
  -15.8185   11.2290  -26.4519 C   0  0  0  0  0  0  0  0  0  0  0  0
  -15.5095   12.5526  -26.5723 O   0  0  0  0  0  0  0  0  0  0  0  0
  -14.5221   13.2588  -27.1499 C   0  0  0  0  0  0  0  0  0  0  0  0
  -13.6862   12.7200  -28.0854 C   0  0  0  0  0  0  0  0  0  0  0  0
  -12.6766   13.4575  -28.6742 C   0  0  0  0  0  0  0  0  0  0  0  0
  -11.8607   12.8765  -29.6068 N   0  0  0  0  0  0  0  0  0  0  0  0
  -10.8732   13.5745  -30.1909 C   0  0  0  0  0  0  0  0  0  0  0  0
  -10.7278   14.8371  -29.8263 N   0  0  0  0  0  0  0  0  0  0  0  0
  -11.4772   15.4957  -28.9212 C   0  0  0  0  0  0  0  0  0  0  0  0
  -11.2161   16.8543  -28.6183 N   0  0  0  0  0  0  0  0  0  0  0  0
  -10.2326   17.6482  -29.2855 C   0  0  0  0  0  0  0  0  0  0  0  0
   -9.8196   18.8323  -28.7379 C   0  0  0  0  0  0  0  0  0  0  0  0
   -8.8370   19.5933  -29.3932 C   0  0  0  0  0  0  0  0  0  0  0  0
   -8.3215   19.1176  -30.5712 C   0  0  0  0  0  0  0  0  0  0  0  0
   -7.3606   19.8535  -31.2206 F   0  0  0  0  0  0  0  0  0  0  0  0
   -8.7299   17.9343  -31.1257 C   0  0  0  0  0  0  0  0  0  0  0  0
   -8.0300   17.3754  -32.6433 Cl  0  0  0  0  0  0  0  0  0  0  0  0
   -9.6885   17.1842  -30.4934 C   0  0  0  0  0  0  0  0  0  0  0  0
  -12.4974   14.7767  -28.3166 C   0  0  0  0  0  0  0  0  0  0  0  0
  -13.3309   15.3508  -27.3703 C   0  0  0  0  0  0  0  0  0  0  0  0
  -14.3267   14.5939  -26.8003 C   0  0  0  0  0  0  0  0  0  0  0  0
  -15.1829   15.1938  -25.8138 N   0  0  0  0  0  0  0  0  0  0  0  0
  -15.6370   16.5078  -25.9011 C   0  0  0  0  0  0  0  0  0  0  0  0
  -15.2047   17.1935  -26.8798 O   0  0  0  0  0  0  0  0  0  0  0  0
  -16.5544   17.1489  -24.9733 C   0  0  0  0  0  0  0  0  0  0  0  0
  -17.4184   16.3512  -24.2301 C   0  0  0  0  0  0  0  0  0  0  0  0
  -18.3201   16.8491  -23.3291 C   0  0  0  0  0  0  0  0  0  0  0  0
  -19.1690   15.9738  -22.6089 N   0  0  0  0  0  4  0  0  0  0  0  0
  -19.1572   14.7652  -22.8464 O   0  0  0  0  0  0  0  0  0  0  0  0
  -19.9980   16.4863  -21.6515 O   0  0  0  0  0  1  0  0  0  0  0  0
  -18.3771   18.2180  -23.1458 C   0  0  0  0  0  0  0  0  0  0  0  0
  -17.5393   19.0108  -23.8649 C   0  0  0  0  0  0  0  0  0  0  0  0
  -16.6350   18.4899  -24.7710 C   0  0  0  0  0  0  0  0  0  0  0  0
  -15.8410   19.3684  -25.4402 F   0  0  0  0  0  0  0  0  0  0  0  0
  2  1  1  0
  2  3  1  0
  2  4  1  0
  4  5  1  0
  5  6  1  0
  6  7  1  0
  7  8  1  0
  8  9  2  0
  9 10  1  0
 10 11  2  0
 11 12  1  0
 12 13  2  0
 13 14  1  0
 14 15  1  0
 15 16  1  0
 16 17  2  0
 17 18  1  0
 18 19  2  0
 19 20  1  0
 19 21  1  0
 21 22  1  0
 21 23  2  0
 14 24  2  0
 24 25  1  0
 25 26  2  0
 26 27  1  0
 27 28  1  0
 28 29  2  0
 28 30  1  0
 30 31  2  0
 31 32  1  0
 32 33  1  0
 33 34  2  0
 33 35  1  0
 32 36  2  0
 36 37  1  0
 37 38  2  0
 38 39  1  0
 26  8  1  0
 38 30  1  0
 24 10  1  0
 23 16  1  0
M  CHG  3   2   1  33   1  35  -1
M  END
$$$$
CHEMBL4745521_diffdock_8
     RDKit          3D

 39 42  0  0  0  0  0  0  0  0999 V2000
  -19.3461   10.2849  -25.3813 C   0  0  0  0  0  0  0  0  0  0  0  0
  -18.9153   11.6816  -25.5511 N   0  0  0  0  0  4  0  0  0  0  0  0
  -19.9583   12.5612  -25.1572 C   0  0  0  0  0  0  0  0  0  0  0  0
  -17.6132   11.8982  -25.0443 C   0  0  0  0  0  0  0  0  0  0  0  0
  -16.5192   11.0017  -25.4945 C   0  0  0  0  0  0  0  0  0  0  0  0
  -15.6413   11.5819  -26.5512 C   0  0  0  0  0  0  0  0  0  0  0  0
  -14.8552   12.6475  -26.2221 O   0  0  0  0  0  0  0  0  0  0  0  0
  -13.8281   13.2965  -26.7979 C   0  0  0  0  0  0  0  0  0  0  0  0
  -12.8762   12.6535  -27.5356 C   0  0  0  0  0  0  0  0  0  0  0  0
  -11.8267   13.3325  -28.1250 C   0  0  0  0  0  0  0  0  0  0  0  0
  -10.8937   12.6474  -28.8553 N   0  0  0  0  0  0  0  0  0  0  0  0
   -9.8656   13.2872  -29.4359 C   0  0  0  0  0  0  0  0  0  0  0  0
   -9.7979   14.5974  -29.2707 N   0  0  0  0  0  0  0  0  0  0  0  0
  -10.6639   15.3576  -28.5731 C   0  0  0  0  0  0  0  0  0  0  0  0
  -10.4769   16.7578  -28.4717 N   0  0  0  0  0  0  0  0  0  0  0  0
   -9.3566   17.4572  -29.0183 C   0  0  0  0  0  0  0  0  0  0  0  0
   -9.4889   18.7593  -29.4177 C   0  0  0  0  0  0  0  0  0  0  0  0
   -8.3748   19.4421  -29.9340 C   0  0  0  0  0  0  0  0  0  0  0  0
   -7.1818   18.7722  -30.0207 C   0  0  0  0  0  0  0  0  0  0  0  0
   -6.0860   19.4298  -30.5242 F   0  0  0  0  0  0  0  0  0  0  0  0
   -7.0416   17.4694  -29.6237 C   0  0  0  0  0  0  0  0  0  0  0  0
   -5.4815   16.6614  -29.7603 Cl  0  0  0  0  0  0  0  0  0  0  0  0
   -8.1234   16.7944  -29.1182 C   0  0  0  0  0  0  0  0  0  0  0  0
  -11.7262   14.6988  -27.9724 C   0  0  0  0  0  0  0  0  0  0  0  0
  -12.6780   15.3785  -27.2295 C   0  0  0  0  0  0  0  0  0  0  0  0
  -13.7111   14.6780  -26.6539 C   0  0  0  0  0  0  0  0  0  0  0  0
  -14.6909   15.3884  -25.8784 N   0  0  0  0  0  0  0  0  0  0  0  0
  -14.3535   16.2951  -24.8762 C   0  0  0  0  0  0  0  0  0  0  0  0
  -13.1952   16.8132  -24.9464 O   0  0  0  0  0  0  0  0  0  0  0  0
  -15.2102   16.6908  -23.7702 C   0  0  0  0  0  0  0  0  0  0  0  0
  -14.8807   17.8316  -23.0454 C   0  0  0  0  0  0  0  0  0  0  0  0
  -15.6163   18.2940  -21.9882 C   0  0  0  0  0  0  0  0  0  0  0  0
  -15.2175   19.4638  -21.2968 N   0  0  0  0  0  4  0  0  0  0  0  0
  -15.8738   19.8696  -20.3366 O   0  0  0  0  0  0  0  0  0  0  0  0
  -14.0998   20.1334  -21.7079 O   0  0  0  0  0  1  0  0  0  0  0  0
  -16.7482   17.5917  -21.6190 C   0  0  0  0  0  0  0  0  0  0  0  0
  -17.0832   16.4747  -22.3175 C   0  0  0  0  0  0  0  0  0  0  0  0
  -16.3277   16.0224  -23.3827 C   0  0  0  0  0  0  0  0  0  0  0  0
  -16.7485   14.8946  -24.0159 F   0  0  0  0  0  0  0  0  0  0  0  0
  2  1  1  0
  2  3  1  0
  2  4  1  0
  4  5  1  0
  5  6  1  0
  6  7  1  0
  7  8  1  0
  8  9  2  0
  9 10  1  0
 10 11  2  0
 11 12  1  0
 12 13  2  0
 13 14  1  0
 14 15  1  0
 15 16  1  0
 16 17  2  0
 17 18  1  0
 18 19  2  0
 19 20  1  0
 19 21  1  0
 21 22  1  0
 21 23  2  0
 14 24  2  0
 24 25  1  0
 25 26  2  0
 26 27  1  0
 27 28  1  0
 28 29  2  0
 28 30  1  0
 30 31  2  0
 31 32  1  0
 32 33  1  0
 33 34  2  0
 33 35  1  0
 32 36  2  0
 36 37  1  0
 37 38  2  0
 38 39  1  0
 26  8  1  0
 38 30  1  0
 24 10  1  0
 23 16  1  0
M  CHG  3   2   1  33   1  35  -1
M  END
$$$$
CHEMBL4745521_diffdock_9
     RDKit          3D

 39 42  0  0  0  0  0  0  0  0999 V2000
  -20.1029   10.6208  -25.6448 C   0  0  0  0  0  0  0  0  0  0  0  0
  -18.7622   10.7087  -25.0446 N   0  0  0  0  0  4  0  0  0  0  0  0
  -18.7382   10.0088  -23.8091 C   0  0  0  0  0  0  0  0  0  0  0  0
  -17.7423   10.4564  -25.9908 C   0  0  0  0  0  0  0  0  0  0  0  0
  -16.3280   10.5914  -25.5613 C   0  0  0  0  0  0  0  0  0  0  0  0
  -15.4148   11.1364  -26.6069 C   0  0  0  0  0  0  0  0  0  0  0  0
  -14.8501   12.3602  -26.3945 O   0  0  0  0  0  0  0  0  0  0  0  0
  -13.9860   13.1469  -27.0594 C   0  0  0  0  0  0  0  0  0  0  0  0
  -13.0388   12.6444  -27.9045 C   0  0  0  0  0  0  0  0  0  0  0  0
  -12.1581   13.4639  -28.5847 C   0  0  0  0  0  0  0  0  0  0  0  0
  -11.2231   12.9171  -29.4213 N   0  0  0  0  0  0  0  0  0  0  0  0
  -10.3573   13.6948  -30.0914 C   0  0  0  0  0  0  0  0  0  0  0  0
  -10.4498   15.0008  -29.9068 N   0  0  0  0  0  0  0  0  0  0  0  0
  -11.3322   15.6314  -29.1079 C   0  0  0  0  0  0  0  0  0  0  0  0
  -11.3260   17.0433  -28.9972 N   0  0  0  0  0  0  0  0  0  0  0  0
  -10.4997   17.9041  -29.7840 C   0  0  0  0  0  0  0  0  0  0  0  0
  -10.3419   19.2162  -29.4293 C   0  0  0  0  0  0  0  0  0  0  0  0
   -9.5103   20.0468  -30.1991 C   0  0  0  0  0  0  0  0  0  0  0  0
   -8.8801   19.5074  -31.2906 C   0  0  0  0  0  0  0  0  0  0  0  0
   -8.0650   20.3103  -32.0508 F   0  0  0  0  0  0  0  0  0  0  0  0
   -9.0333   18.1959  -31.6524 C   0  0  0  0  0  0  0  0  0  0  0  0
   -8.1968   17.5603  -33.0671 Cl  0  0  0  0  0  0  0  0  0  0  0  0
   -9.8429   17.3770  -30.9069 C   0  0  0  0  0  0  0  0  0  0  0  0
  -12.2272   14.8301  -28.4148 C   0  0  0  0  0  0  0  0  0  0  0  0
  -13.1786   15.3689  -27.5638 C   0  0  0  0  0  0  0  0  0  0  0  0
  -14.0418   14.5304  -26.8995 C   0  0  0  0  0  0  0  0  0  0  0  0
  -15.0215   15.0957  -26.0125 N   0  0  0  0  0  0  0  0  0  0  0  0
  -15.1047   16.4599  -25.7439 C   0  0  0  0  0  0  0  0  0  0  0  0
  -14.3606   17.2211  -26.4381 O   0  0  0  0  0  0  0  0  0  0  0  0
  -15.9641   17.0745  -24.7452 C   0  0  0  0  0  0  0  0  0  0  0  0
  -15.6961   18.3798  -24.3458 C   0  0  0  0  0  0  0  0  0  0  0  0
  -16.4399   19.0534  -23.4155 C   0  0  0  0  0  0  0  0  0  0  0  0
  -16.1053   20.3822  -23.0581 N   0  0  0  0  0  4  0  0  0  0  0  0
  -15.2236   20.9850  -23.6718 O   0  0  0  0  0  0  0  0  0  0  0  0
  -16.7706   20.9836  -22.0275 O   0  0  0  0  0  1  0  0  0  0  0  0
  -17.5163   18.4040  -22.8405 C   0  0  0  0  0  0  0  0  0  0  0  0
  -17.7908   17.1280  -23.2203 C   0  0  0  0  0  0  0  0  0  0  0  0
  -17.0279   16.4633  -24.1617 C   0  0  0  0  0  0  0  0  0  0  0  0
  -17.3861   15.1886  -24.4726 F   0  0  0  0  0  0  0  0  0  0  0  0
  2  1  1  0
  2  3  1  0
  2  4  1  0
  4  5  1  0
  5  6  1  0
  6  7  1  0
  7  8  1  0
  8  9  2  0
  9 10  1  0
 10 11  2  0
 11 12  1  0
 12 13  2  0
 13 14  1  0
 14 15  1  0
 15 16  1  0
 16 17  2  0
 17 18  1  0
 18 19  2  0
 19 20  1  0
 19 21  1  0
 21 22  1  0
 21 23  2  0
 14 24  2  0
 24 25  1  0
 25 26  2  0
 26 27  1  0
 27 28  1  0
 28 29  2  0
 28 30  1  0
 30 31  2  0
 31 32  1  0
 32 33  1  0
 33 34  2  0
 33 35  1  0
 32 36  2  0
 36 37  1  0
 37 38  2  0
 38 39  1  0
 26  8  1  0
 38 30  1  0
 24 10  1  0
 23 16  1  0
M  CHG  3   2   1  33   1  35  -1
M  END
$$$$
CHEMBL4745521_diffdock_10
     RDKit          3D

 39 42  0  0  0  0  0  0  0  0999 V2000
   -6.1793   19.4593  -31.0208 C   0  0  0  0  0  0  0  0  0  0  0  0
   -5.3230   18.2915  -30.7596 N   0  0  0  0  0  4  0  0  0  0  0  0
   -4.2437   18.6620  -29.9143 C   0  0  0  0  0  0  0  0  0  0  0  0
   -6.0807   17.1431  -30.4338 C   0  0  0  0  0  0  0  0  0  0  0  0
   -7.1722   16.7303  -31.3511 C   0  0  0  0  0  0  0  0  0  0  0  0
   -8.1160   15.7290  -30.7762 C   0  0  0  0  0  0  0  0  0  0  0  0
   -9.1179   16.1788  -29.9666 O   0  0  0  0  0  0  0  0  0  0  0  0
  -10.1558   15.6179  -29.3220 C   0  0  0  0  0  0  0  0  0  0  0  0
  -10.3535   14.2674  -29.2871 C   0  0  0  0  0  0  0  0  0  0  0  0
  -11.4229   13.7027  -28.6184 C   0  0  0  0  0  0  0  0  0  0  0  0
  -11.5833   12.3436  -28.6105 N   0  0  0  0  0  0  0  0  0  0  0  0
  -12.6157   11.7739  -27.9675 C   0  0  0  0  0  0  0  0  0  0  0  0
  -13.4614   12.5800  -27.3485 N   0  0  0  0  0  0  0  0  0  0  0  0
  -13.3888   13.9242  -27.2992 C   0  0  0  0  0  0  0  0  0  0  0  0
  -14.3642   14.6753  -26.5991 N   0  0  0  0  0  0  0  0  0  0  0  0
  -15.4594   14.0970  -25.8857 C   0  0  0  0  0  0  0  0  0  0  0  0
  -16.1383   14.8351  -24.9548 C   0  0  0  0  0  0  0  0  0  0  0  0
  -17.2263   14.2618  -24.2753 C   0  0  0  0  0  0  0  0  0  0  0  0
  -17.5725   12.9688  -24.5719 C   0  0  0  0  0  0  0  0  0  0  0  0
  -18.6342   12.3980  -23.9134 F   0  0  0  0  0  0  0  0  0  0  0  0
  -16.8979   12.2237  -25.5015 C   0  0  0  0  0  0  0  0  0  0  0  0
  -17.3902   10.5657  -25.8391 Cl  0  0  0  0  0  0  0  0  0  0  0  0
  -15.8345   12.7747  -26.1703 C   0  0  0  0  0  0  0  0  0  0  0  0
  -12.3236   14.5146  -27.9627 C   0  0  0  0  0  0  0  0  0  0  0  0
  -12.1484   15.8889  -27.9803 C   0  0  0  0  0  0  0  0  0  0  0  0
  -11.0760   16.4238  -28.6537 C   0  0  0  0  0  0  0  0  0  0  0  0
  -10.9045   17.8508  -28.6741 N   0  0  0  0  0  0  0  0  0  0  0  0
  -11.2494   18.6720  -27.6032 C   0  0  0  0  0  0  0  0  0  0  0  0
  -12.0423   18.1779  -26.7418 O   0  0  0  0  0  0  0  0  0  0  0  0
  -10.7803   20.0323  -27.3952 C   0  0  0  0  0  0  0  0  0  0  0  0
   -9.7824   20.2576  -26.4524 C   0  0  0  0  0  0  0  0  0  0  0  0
   -9.2677   21.4955  -26.1778 C   0  0  0  0  0  0  0  0  0  0  0  0
   -8.2524   21.6474  -25.2023 N   0  0  0  0  0  4  0  0  0  0  0  0
   -7.6156   20.6673  -24.8136 O   0  0  0  0  0  0  0  0  0  0  0  0
   -7.9904   22.8907  -24.7002 O   0  0  0  0  0  1  0  0  0  0  0  0
   -9.7641   22.5819  -26.8737 C   0  0  0  0  0  0  0  0  0  0  0  0
  -10.7395   22.3777  -27.7981 C   0  0  0  0  0  0  0  0  0  0  0  0
  -11.2476   21.1198  -28.0619 C   0  0  0  0  0  0  0  0  0  0  0  0
  -12.2220   21.0223  -29.0058 F   0  0  0  0  0  0  0  0  0  0  0  0
  2  1  1  0
  2  3  1  0
  2  4  1  0
  4  5  1  0
  5  6  1  0
  6  7  1  0
  7  8  1  0
  8  9  2  0
  9 10  1  0
 10 11  2  0
 11 12  1  0
 12 13  2  0
 13 14  1  0
 14 15  1  0
 15 16  1  0
 16 17  2  0
 17 18  1  0
 18 19  2  0
 19 20  1  0
 19 21  1  0
 21 22  1  0
 21 23  2  0
 14 24  2  0
 24 25  1  0
 25 26  2  0
 26 27  1  0
 27 28  1  0
 28 29  2  0
 28 30  1  0
 30 31  2  0
 31 32  1  0
 32 33  1  0
 33 34  2  0
 33 35  1  0
 32 36  2  0
 36 37  1  0
 37 38  2  0
 38 39  1  0
 26  8  1  0
 38 30  1  0
 24 10  1  0
 23 16  1  0
M  CHG  3   2   1  33   1  35  -1
M  END
$$$$
CHEMBL5077776_diffdock_1
     RDKit          3D

 34 38  0  0  0  0  0  0  0  0999 V2000
  -14.8253   16.8574  -21.2632 C   0  0  0  0  0  0  0  0  0  0  0  0
  -15.0678   17.0687  -22.5512 C   0  0  0  0  0  0  0  0  0  0  0  0
  -14.5436   18.2257  -23.2230 C   0  0  0  0  0  0  0  0  0  0  0  0
  -13.5436   17.9446  -23.8824 O   0  0  0  0  0  0  0  0  0  0  0  0
  -14.5576   19.5393  -23.5415 N   0  0  2  0  0  4  0  0  0  0  0  0
  -15.2082   19.8065  -24.7735 C   0  0  0  0  0  0  0  0  0  0  0  0
  -14.6837   19.0194  -25.9121 C   0  0  0  0  0  0  0  0  0  0  0  0
  -13.3103   19.5656  -26.2484 C   0  0  2  0  0  0  0  0  0  0  0  0
  -12.5133   19.7991  -24.9918 C   0  0  0  0  0  0  0  0  0  0  0  0
  -13.2319   20.2148  -23.7939 C   0  0  0  0  0  0  0  0  0  0  0  0
  -13.4095   20.8548  -27.0265 C   0  0  0  0  0  0  0  0  0  0  0  0
  -12.0273   21.2627  -27.3417 N   0  0  0  0  0  0  0  0  0  0  0  0
  -11.3119   20.3450  -28.1569 C   0  0  0  0  0  0  0  0  0  0  0  0
  -10.4345   20.7134  -28.9610 O   0  0  0  0  0  0  0  0  0  0  0  0
  -11.6685   18.9246  -27.9962 C   0  0  0  0  0  0  0  0  0  0  0  0
  -11.2258   17.7661  -28.6107 C   0  0  0  0  0  0  0  0  0  0  0  0
  -11.9167   16.6942  -28.0962 C   0  0  0  0  0  0  0  0  0  0  0  0
  -11.7534   15.2957  -28.4734 C   0  0  0  0  0  0  0  0  0  0  0  0
  -10.7621   14.8563  -29.3137 C   0  0  0  0  0  0  0  0  0  0  0  0
  -10.6230   13.5326  -29.6588 C   0  0  0  0  0  0  0  0  0  0  0  0
  -11.5196   12.6819  -29.1233 N   0  0  0  0  0  0  0  0  0  0  0  0
  -12.4935   13.0432  -28.3103 C   0  0  0  0  0  0  0  0  0  0  0  0
  -13.4109   12.1280  -27.7704 N   0  0  0  0  0  0  0  0  0  0  0  0
  -14.4601   12.4028  -26.8531 C   0  0  0  0  0  0  0  0  0  0  0  0
  -14.5561   13.5430  -26.0915 C   0  0  0  0  0  0  0  0  0  0  0  0
  -15.6062   13.7451  -25.2178 C   0  0  0  0  0  0  0  0  0  0  0  0
  -16.6061   12.8145  -25.0685 C   0  0  0  0  0  0  0  0  0  0  0  0
  -16.5193   11.6658  -25.8288 C   0  0  0  0  0  0  0  0  0  0  0  0
  -15.4882   11.4628  -26.6895 C   0  0  0  0  0  0  0  0  0  0  0  0
  -15.4375   10.2859  -27.4411 O   0  0  0  0  0  0  0  0  0  0  0  0
  -16.4730    9.3545  -27.4713 C   0  0  0  0  0  0  0  0  0  0  0  0
  -12.6044   14.3824  -27.9841 N   0  0  0  0  0  0  0  0  0  0  0  0
  -12.7570   17.1934  -27.1918 N   0  0  0  0  0  0  0  0  0  0  0  0
  -12.6395   18.5518  -27.0970 C   0  0  0  0  0  0  0  0  0  0  0  0
  1  2  2  0
  2  3  1  0
  3  4  2  0
  5  3  1  6
  5  6  1  0
  6  7  1  0
  8  7  1  1
  8  9  1  0
  9 10  1  0
  8 11  1  0
 11 12  1  0
 12 13  1  0
 13 14  2  0
 13 15  1  0
 15 16  1  0
 16 17  2  0
 17 18  1  0
 18 19  2  0
 19 20  1  0
 20 21  2  0
 21 22  1  0
 22 23  1  0
 23 24  1  0
 24 25  2  0
 25 26  1  0
 26 27  2  0
 27 28  1  0
 28 29  2  0
 29 30  1  0
 30 31  1  0
 22 32  2  0
 17 33  1  0
 33 34  1  0
 10  5  1  0
 34 15  2  0
 34  8  1  0
 32 18  1  0
 29 24  1  0
M  CHG  1   5   1
M  END
$$$$
CHEMBL5077776_diffdock_2
     RDKit          3D

 34 38  0  0  0  0  0  0  0  0999 V2000
  -14.4264   17.0915  -21.1170 C   0  0  0  0  0  0  0  0  0  0  0  0
  -14.0393   17.1205  -22.3864 C   0  0  0  0  0  0  0  0  0  0  0  0
  -14.2695   18.2794  -23.2042 C   0  0  0  0  0  0  0  0  0  0  0  0
  -14.9669   18.0060  -24.1804 O   0  0  0  0  0  0  0  0  0  0  0  0
  -14.1242   19.5908  -23.4979 N   0  0  2  0  0  4  0  0  0  0  0  0
  -14.7972   19.9730  -24.6868 C   0  0  0  0  0  0  0  0  0  0  0  0
  -14.4438   19.1521  -25.8667 C   0  0  0  0  0  0  0  0  0  0  0  0
  -13.0293   19.5193  -26.2692 C   0  0  2  0  0  0  0  0  0  0  0  0
  -12.1430   19.6131  -25.0550 C   0  0  0  0  0  0  0  0  0  0  0  0
  -12.7352   20.0903  -23.8116 C   0  0  0  0  0  0  0  0  0  0  0  0
  -12.9958   20.8295  -27.0174 C   0  0  0  0  0  0  0  0  0  0  0  0
  -11.5900   21.0579  -27.4017 N   0  0  0  0  0  0  0  0  0  0  0  0
  -11.0481   20.0741  -28.2718 C   0  0  0  0  0  0  0  0  0  0  0  0
  -10.1729   20.3428  -29.1167 O   0  0  0  0  0  0  0  0  0  0  0  0
  -11.5829   18.7101  -28.1169 C   0  0  0  0  0  0  0  0  0  0  0  0
  -11.3325   17.5188  -28.7758 C   0  0  0  0  0  0  0  0  0  0  0  0
  -12.1327   16.5357  -28.2428 C   0  0  0  0  0  0  0  0  0  0  0  0
  -12.1784   15.1378  -28.6535 C   0  0  0  0  0  0  0  0  0  0  0  0
  -11.3450   14.6082  -29.6057 C   0  0  0  0  0  0  0  0  0  0  0  0
  -11.4022   13.2865  -29.9807 C   0  0  0  0  0  0  0  0  0  0  0  0
  -12.3282   12.5321  -29.3583 N   0  0  0  0  0  0  0  0  0  0  0  0
  -13.1568   12.9829  -28.4362 C   0  0  0  0  0  0  0  0  0  0  0  0
  -14.1106   12.1667  -27.8078 N   0  0  0  0  0  0  0  0  0  0  0  0
  -15.1188   12.5715  -26.8927 C   0  0  0  0  0  0  0  0  0  0  0  0
  -15.0490   13.6879  -26.0937 C   0  0  0  0  0  0  0  0  0  0  0  0
  -16.0687   14.0224  -25.2247 C   0  0  0  0  0  0  0  0  0  0  0  0
  -17.2027   13.2538  -25.1175 C   0  0  0  0  0  0  0  0  0  0  0  0
  -17.2828   12.1305  -25.9154 C   0  0  0  0  0  0  0  0  0  0  0  0
  -16.2823   11.7976  -26.7717 C   0  0  0  0  0  0  0  0  0  0  0  0
  -16.4026   10.6517  -27.5623 O   0  0  0  0  0  0  0  0  0  0  0  0
  -17.5052    9.8018  -27.5115 C   0  0  0  0  0  0  0  0  0  0  0  0
  -13.0720   14.3171  -28.0828 N   0  0  0  0  0  0  0  0  0  0  0  0
  -12.8496   17.1191  -27.2842 N   0  0  0  0  0  0  0  0  0  0  0  0
  -12.5462   18.4470  -27.1718 C   0  0  0  0  0  0  0  0  0  0  0  0
  1  2  2  0
  2  3  1  0
  3  4  2  0
  5  3  1  6
  5  6  1  0
  6  7  1  0
  8  7  1  1
  8  9  1  0
  9 10  1  0
  8 11  1  0
 11 12  1  0
 12 13  1  0
 13 14  2  0
 13 15  1  0
 15 16  1  0
 16 17  2  0
 17 18  1  0
 18 19  2  0
 19 20  1  0
 20 21  2  0
 21 22  1  0
 22 23  1  0
 23 24  1  0
 24 25  2  0
 25 26  1  0
 26 27  2  0
 27 28  1  0
 28 29  2  0
 29 30  1  0
 30 31  1  0
 22 32  2  0
 17 33  1  0
 33 34  1  0
 10  5  1  0
 34 15  2  0
 34  8  1  0
 32 18  1  0
 29 24  1  0
M  CHG  1   5   1
M  END
$$$$
CHEMBL5077776_diffdock_3
     RDKit          3D

 34 38  0  0  0  0  0  0  0  0999 V2000
  -14.6001   17.1567  -21.0302 C   0  0  0  0  0  0  0  0  0  0  0  0
  -14.1274   16.9896  -22.2593 C   0  0  0  0  0  0  0  0  0  0  0  0
  -13.9623   18.1072  -23.1473 C   0  0  0  0  0  0  0  0  0  0  0  0
  -13.6710   17.7358  -24.2835 O   0  0  0  0  0  0  0  0  0  0  0  0
  -13.9542   19.4301  -23.4251 N   0  0  2  0  0  4  0  0  0  0  0  0
  -14.6461   19.7521  -24.6209 C   0  0  0  0  0  0  0  0  0  0  0  0
  -14.1886   18.9879  -25.8031 C   0  0  0  0  0  0  0  0  0  0  0  0
  -12.8156   19.5096  -26.1784 C   0  0  2  0  0  0  0  0  0  0  0  0
  -11.9633   19.6834  -24.9489 C   0  0  0  0  0  0  0  0  0  0  0  0
  -12.6222   20.0794  -23.7106 C   0  0  0  0  0  0  0  0  0  0  0  0
  -12.9116   20.8246  -26.9125 C   0  0  0  0  0  0  0  0  0  0  0  0
  -11.5327   21.2070  -27.2712 N   0  0  0  0  0  0  0  0  0  0  0  0
  -10.8751   20.2975  -28.1423 C   0  0  0  0  0  0  0  0  0  0  0  0
  -10.0210   20.6686  -28.9699 O   0  0  0  0  0  0  0  0  0  0  0  0
  -11.2625   18.8822  -28.0103 C   0  0  0  0  0  0  0  0  0  0  0  0
  -10.8756   17.7327  -28.6770 C   0  0  0  0  0  0  0  0  0  0  0  0
  -11.5736   16.6631  -28.1675 C   0  0  0  0  0  0  0  0  0  0  0  0
  -11.4626   15.2734  -28.5931 C   0  0  0  0  0  0  0  0  0  0  0  0
  -10.5040   14.8316  -29.4693 C   0  0  0  0  0  0  0  0  0  0  0  0
  -10.4141   13.5163  -29.8599 C   0  0  0  0  0  0  0  0  0  0  0  0
  -11.3254   12.6765  -29.3321 N   0  0  0  0  0  0  0  0  0  0  0  0
  -12.2698   13.0406  -28.4862 C   0  0  0  0  0  0  0  0  0  0  0  0
  -13.2038   12.1368  -27.9556 N   0  0  0  0  0  0  0  0  0  0  0  0
  -14.2616   12.4255  -27.0526 C   0  0  0  0  0  0  0  0  0  0  0  0
  -14.3508   13.5650  -26.2891 C   0  0  0  0  0  0  0  0  0  0  0  0
  -15.4100   13.7810  -25.4299 C   0  0  0  0  0  0  0  0  0  0  0  0
  -16.4263   12.8657  -25.2976 C   0  0  0  0  0  0  0  0  0  0  0  0
  -16.3465   11.7179  -26.0599 C   0  0  0  0  0  0  0  0  0  0  0  0
  -15.3064   11.5012  -26.9064 C   0  0  0  0  0  0  0  0  0  0  0  0
  -15.2632   10.3256  -27.6606 O   0  0  0  0  0  0  0  0  0  0  0  0
  -16.2594    9.3530  -27.6155 C   0  0  0  0  0  0  0  0  0  0  0  0
  -12.3313   14.3712  -28.1146 N   0  0  0  0  0  0  0  0  0  0  0  0
  -12.3636   17.1548  -27.2149 N   0  0  0  0  0  0  0  0  0  0  0  0
  -12.2064   18.5061  -27.0839 C   0  0  0  0  0  0  0  0  0  0  0  0
  1  2  2  0
  2  3  1  0
  3  4  2  0
  5  3  1  6
  5  6  1  0
  6  7  1  0
  8  7  1  1
  8  9  1  0
  9 10  1  0
  8 11  1  0
 11 12  1  0
 12 13  1  0
 13 14  2  0
 13 15  1  0
 15 16  1  0
 16 17  2  0
 17 18  1  0
 18 19  2  0
 19 20  1  0
 20 21  2  0
 21 22  1  0
 22 23  1  0
 23 24  1  0
 24 25  2  0
 25 26  1  0
 26 27  2  0
 27 28  1  0
 28 29  2  0
 29 30  1  0
 30 31  1  0
 22 32  2  0
 17 33  1  0
 33 34  1  0
 10  5  1  0
 34 15  2  0
 34  8  1  0
 32 18  1  0
 29 24  1  0
M  CHG  1   5   1
M  END
$$$$
CHEMBL5077776_diffdock_4
     RDKit          3D

 34 38  0  0  0  0  0  0  0  0999 V2000
  -15.1375   17.3980  -21.3018 C   0  0  0  0  0  0  0  0  0  0  0  0
  -14.6319   17.3327  -22.5275 C   0  0  0  0  0  0  0  0  0  0  0  0
  -14.2423   18.5229  -23.2320 C   0  0  0  0  0  0  0  0  0  0  0  0
  -13.3615   18.2853  -24.0577 O   0  0  0  0  0  0  0  0  0  0  0  0
  -14.3270   19.8464  -23.4934 N   0  0  2  0  0  4  0  0  0  0  0  0
  -15.0435   20.1341  -24.6836 C   0  0  0  0  0  0  0  0  0  0  0  0
  -14.5377   19.4181  -25.8762 C   0  0  0  0  0  0  0  0  0  0  0  0
  -13.2056   20.0384  -26.2483 C   0  0  2  0  0  0  0  0  0  0  0  0
  -12.3634   20.2561  -25.0187 C   0  0  0  0  0  0  0  0  0  0  0  0
  -13.0443   20.5902  -23.7740 C   0  0  0  0  0  0  0  0  0  0  0  0
  -13.3951   21.3525  -26.9658 C   0  0  0  0  0  0  0  0  0  0  0  0
  -12.0473   21.8342  -27.3230 N   0  0  0  0  0  0  0  0  0  0  0  0
  -11.3309   20.9833  -28.2068 C   0  0  0  0  0  0  0  0  0  0  0  0
  -10.5072   21.4229  -29.0318 O   0  0  0  0  0  0  0  0  0  0  0  0
  -11.6186   19.5430  -28.0914 C   0  0  0  0  0  0  0  0  0  0  0  0
  -11.1548   18.4313  -28.7732 C   0  0  0  0  0  0  0  0  0  0  0  0
  -11.7752   17.3096  -28.2753 C   0  0  0  0  0  0  0  0  0  0  0  0
  -11.5692   15.9363  -28.7184 C   0  0  0  0  0  0  0  0  0  0  0  0
  -10.5372   15.5601  -29.5402 C   0  0  0  0  0  0  0  0  0  0  0  0
  -10.3582   14.2593  -29.9482 C   0  0  0  0  0  0  0  0  0  0  0  0
  -11.2578   13.3654  -29.4945 N   0  0  0  0  0  0  0  0  0  0  0  0
  -12.2698   13.6653  -28.7034 C   0  0  0  0  0  0  0  0  0  0  0  0
  -13.1891   12.7064  -28.2494 N   0  0  0  0  0  0  0  0  0  0  0  0
  -14.2554   12.9050  -27.3322 C   0  0  0  0  0  0  0  0  0  0  0  0
  -14.4298   14.0327  -26.5659 C   0  0  0  0  0  0  0  0  0  0  0  0
  -15.4920   14.1588  -25.6926 C   0  0  0  0  0  0  0  0  0  0  0  0
  -16.4260   13.1613  -25.5482 C   0  0  0  0  0  0  0  0  0  0  0  0
  -16.2601   12.0245  -26.3131 C   0  0  0  0  0  0  0  0  0  0  0  0
  -15.2168   11.8961  -27.1735 C   0  0  0  0  0  0  0  0  0  0  0  0
  -15.0851   10.7286  -27.9299 O   0  0  0  0  0  0  0  0  0  0  0  0
  -15.9344    9.6325  -27.7958 C   0  0  0  0  0  0  0  0  0  0  0  0
  -12.4203   14.9832  -28.3122 N   0  0  0  0  0  0  0  0  0  0  0  0
  -12.5943   17.7336  -27.3148 N   0  0  0  0  0  0  0  0  0  0  0  0
  -12.5310   19.0909  -27.1675 C   0  0  0  0  0  0  0  0  0  0  0  0
  1  2  2  0
  2  3  1  0
  3  4  2  0
  5  3  1  6
  5  6  1  0
  6  7  1  0
  8  7  1  1
  8  9  1  0
  9 10  1  0
  8 11  1  0
 11 12  1  0
 12 13  1  0
 13 14  2  0
 13 15  1  0
 15 16  1  0
 16 17  2  0
 17 18  1  0
 18 19  2  0
 19 20  1  0
 20 21  2  0
 21 22  1  0
 22 23  1  0
 23 24  1  0
 24 25  2  0
 25 26  1  0
 26 27  2  0
 27 28  1  0
 28 29  2  0
 29 30  1  0
 30 31  1  0
 22 32  2  0
 17 33  1  0
 33 34  1  0
 10  5  1  0
 34 15  2  0
 34  8  1  0
 32 18  1  0
 29 24  1  0
M  CHG  1   5   1
M  END
$$$$
CHEMBL5077776_diffdock_5
     RDKit          3D

 34 38  0  0  0  0  0  0  0  0999 V2000
  -14.4988   16.7081  -21.6454 C   0  0  0  0  0  0  0  0  0  0  0  0
  -14.7310   17.0114  -22.9167 C   0  0  0  0  0  0  0  0  0  0  0  0
  -14.2017   18.2134  -23.4995 C   0  0  0  0  0  0  0  0  0  0  0  0
  -13.1111   18.0095  -24.0314 O   0  0  0  0  0  0  0  0  0  0  0  0
  -14.2595   19.5307  -23.7975 N   0  0  2  0  0  4  0  0  0  0  0  0
  -14.9406   19.7971  -25.0131 C   0  0  0  0  0  0  0  0  0  0  0  0
  -14.4153   19.0424  -26.1730 C   0  0  0  0  0  0  0  0  0  0  0  0
  -13.0648   19.6333  -26.5262 C   0  0  2  0  0  0  0  0  0  0  0  0
  -12.2513   19.8711  -25.2812 C   0  0  0  0  0  0  0  0  0  0  0  0
  -12.9588   20.2480  -24.0639 C   0  0  0  0  0  0  0  0  0  0  0  0
  -13.2157   20.9304  -27.2826 C   0  0  0  0  0  0  0  0  0  0  0  0
  -11.8520   21.3829  -27.6169 N   0  0  0  0  0  0  0  0  0  0  0  0
  -11.1261   20.4985  -28.4592 C   0  0  0  0  0  0  0  0  0  0  0  0
  -10.2749   20.9041  -29.2736 O   0  0  0  0  0  0  0  0  0  0  0  0
  -11.4386   19.0661  -28.3137 C   0  0  0  0  0  0  0  0  0  0  0  0
  -10.9744   17.9301  -28.9540 C   0  0  0  0  0  0  0  0  0  0  0  0
  -11.6245   16.8312  -28.4433 C   0  0  0  0  0  0  0  0  0  0  0  0
  -11.4281   15.4437  -28.8448 C   0  0  0  0  0  0  0  0  0  0  0  0
  -10.4547   15.0488  -29.7270 C   0  0  0  0  0  0  0  0  0  0  0  0
  -10.2839   13.7348  -30.0945 C   0  0  0  0  0  0  0  0  0  0  0  0
  -11.1305   12.8475  -29.5377 N   0  0  0  0  0  0  0  0  0  0  0  0
  -12.0851   13.1653  -28.6846 C   0  0  0  0  0  0  0  0  0  0  0  0
  -12.9502   12.2128  -28.1234 N   0  0  0  0  0  0  0  0  0  0  0  0
  -14.0271   12.4518  -27.2285 C   0  0  0  0  0  0  0  0  0  0  0  0
  -14.1651   13.5774  -26.4517 C   0  0  0  0  0  0  0  0  0  0  0  0
  -15.2404   13.7442  -25.6015 C   0  0  0  0  0  0  0  0  0  0  0  0
  -16.2245   12.7915  -25.4919 C   0  0  0  0  0  0  0  0  0  0  0  0
  -16.0955   11.6573  -26.2676 C   0  0  0  0  0  0  0  0  0  0  0  0
  -15.0395   11.4888  -27.1053 C   0  0  0  0  0  0  0  0  0  0  0  0
  -14.9462   10.3254  -27.8737 O   0  0  0  0  0  0  0  0  0  0  0  0
  -15.9102    9.3199  -27.8560 C   0  0  0  0  0  0  0  0  0  0  0  0
  -12.2289   14.4960  -28.3367 N   0  0  0  0  0  0  0  0  0  0  0  0
  -12.4615   17.2923  -27.5160 N   0  0  0  0  0  0  0  0  0  0  0  0
  -12.3813   18.6520  -27.4025 C   0  0  0  0  0  0  0  0  0  0  0  0
  1  2  2  0
  2  3  1  0
  3  4  2  0
  5  3  1  6
  5  6  1  0
  6  7  1  0
  8  7  1  1
  8  9  1  0
  9 10  1  0
  8 11  1  0
 11 12  1  0
 12 13  1  0
 13 14  2  0
 13 15  1  0
 15 16  1  0
 16 17  2  0
 17 18  1  0
 18 19  2  0
 19 20  1  0
 20 21  2  0
 21 22  1  0
 22 23  1  0
 23 24  1  0
 24 25  2  0
 25 26  1  0
 26 27  2  0
 27 28  1  0
 28 29  2  0
 29 30  1  0
 30 31  1  0
 22 32  2  0
 17 33  1  0
 33 34  1  0
 10  5  1  0
 34 15  2  0
 34  8  1  0
 32 18  1  0
 29 24  1  0
M  CHG  1   5   1
M  END
$$$$
CHEMBL5077776_diffdock_6
     RDKit          3D

 34 38  0  0  0  0  0  0  0  0999 V2000
  -14.6028   16.7527  -21.2508 C   0  0  0  0  0  0  0  0  0  0  0  0
  -14.7893   17.0188  -22.5379 C   0  0  0  0  0  0  0  0  0  0  0  0
  -14.2366   18.2023  -23.1368 C   0  0  0  0  0  0  0  0  0  0  0  0
  -13.1355   17.9772  -23.6374 O   0  0  0  0  0  0  0  0  0  0  0  0
  -14.2766   19.5123  -23.4678 N   0  0  2  0  0  4  0  0  0  0  0  0
  -14.9380   19.7554  -24.6991 C   0  0  0  0  0  0  0  0  0  0  0  0
  -14.4044   18.9672  -25.8326 C   0  0  0  0  0  0  0  0  0  0  0  0
  -13.0430   19.5356  -26.1810 C   0  0  2  0  0  0  0  0  0  0  0  0
  -12.2445   19.7959  -24.9307 C   0  0  0  0  0  0  0  0  0  0  0  0
  -12.9650   20.2098  -23.7332 C   0  0  0  0  0  0  0  0  0  0  0  0
  -13.1700   20.8151  -26.9710 C   0  0  0  0  0  0  0  0  0  0  0  0
  -11.7971   21.2455  -27.2969 N   0  0  0  0  0  0  0  0  0  0  0  0
  -11.0688   20.3334  -28.1068 C   0  0  0  0  0  0  0  0  0  0  0  0
  -10.2022   20.7102  -28.9188 O   0  0  0  0  0  0  0  0  0  0  0  0
  -11.3980   18.9082  -27.9308 C   0  0  0  0  0  0  0  0  0  0  0  0
  -10.9368   17.7522  -28.5363 C   0  0  0  0  0  0  0  0  0  0  0  0
  -11.6052   16.6728  -28.0081 C   0  0  0  0  0  0  0  0  0  0  0  0
  -11.4176   15.2739  -28.3726 C   0  0  0  0  0  0  0  0  0  0  0  0
  -10.4412   14.8486  -29.2373 C   0  0  0  0  0  0  0  0  0  0  0  0
  -10.2788   13.5243  -29.5699 C   0  0  0  0  0  0  0  0  0  0  0  0
  -11.1368   12.6585  -28.9968 N   0  0  0  0  0  0  0  0  0  0  0  0
  -12.0948   13.0058  -28.1591 C   0  0  0  0  0  0  0  0  0  0  0  0
  -12.9718   12.0751  -27.5802 N   0  0  0  0  0  0  0  0  0  0  0  0
  -14.0805   12.3492  -26.7355 C   0  0  0  0  0  0  0  0  0  0  0  0
  -14.2212   13.4826  -25.9706 C   0  0  0  0  0  0  0  0  0  0  0  0
  -15.3282   13.6844  -25.1703 C   0  0  0  0  0  0  0  0  0  0  0  0
  -16.3428   12.7603  -25.1007 C   0  0  0  0  0  0  0  0  0  0  0  0
  -16.2115   11.6186  -25.8650 C   0  0  0  0  0  0  0  0  0  0  0  0
  -15.1242   11.4158  -26.6537 C   0  0  0  0  0  0  0  0  0  0  0  0
  -15.0297   10.2460  -27.4122 O   0  0  0  0  0  0  0  0  0  0  0  0
  -16.0078    9.2541  -27.4101 C   0  0  0  0  0  0  0  0  0  0  0  0
  -12.2299   14.3461  -27.8464 N   0  0  0  0  0  0  0  0  0  0  0  0
  -12.4502   17.1650  -27.1043 N   0  0  0  0  0  0  0  0  0  0  0  0
  -12.3576   18.5262  -27.0231 C   0  0  0  0  0  0  0  0  0  0  0  0
  1  2  2  0
  2  3  1  0
  3  4  2  0
  5  3  1  6
  5  6  1  0
  6  7  1  0
  8  7  1  1
  8  9  1  0
  9 10  1  0
  8 11  1  0
 11 12  1  0
 12 13  1  0
 13 14  2  0
 13 15  1  0
 15 16  1  0
 16 17  2  0
 17 18  1  0
 18 19  2  0
 19 20  1  0
 20 21  2  0
 21 22  1  0
 22 23  1  0
 23 24  1  0
 24 25  2  0
 25 26  1  0
 26 27  2  0
 27 28  1  0
 28 29  2  0
 29 30  1  0
 30 31  1  0
 22 32  2  0
 17 33  1  0
 33 34  1  0
 10  5  1  0
 34 15  2  0
 34  8  1  0
 32 18  1  0
 29 24  1  0
M  CHG  1   5   1
M  END
$$$$
CHEMBL5077776_diffdock_7
     RDKit          3D

 34 38  0  0  0  0  0  0  0  0999 V2000
  -13.2400   17.0094  -21.2628 C   0  0  0  0  0  0  0  0  0  0  0  0
  -14.1034   17.0199  -22.2710 C   0  0  0  0  0  0  0  0  0  0  0  0
  -14.2275   18.1671  -23.1274 C   0  0  0  0  0  0  0  0  0  0  0  0
  -14.5402   17.8390  -24.2713 O   0  0  0  0  0  0  0  0  0  0  0  0
  -14.1833   19.4963  -23.3694 N   0  0  2  0  0  4  0  0  0  0  0  0
  -14.8609   19.8685  -24.5588 C   0  0  0  0  0  0  0  0  0  0  0  0
  -14.4180   19.1246  -25.7594 C   0  0  0  0  0  0  0  0  0  0  0  0
  -13.0301   19.6198  -26.1150 C   0  0  2  0  0  0  0  0  0  0  0  0
  -12.1792   19.7379  -24.8778 C   0  0  0  0  0  0  0  0  0  0  0  0
  -12.8334   20.1177  -23.6319 C   0  0  0  0  0  0  0  0  0  0  0  0
  -13.0880   20.9562  -26.8137 C   0  0  0  0  0  0  0  0  0  0  0  0
  -11.6979   21.3116  -27.1564 N   0  0  0  0  0  0  0  0  0  0  0  0
  -11.0604   20.4088  -28.0491 C   0  0  0  0  0  0  0  0  0  0  0  0
  -10.1929   20.7793  -28.8630 O   0  0  0  0  0  0  0  0  0  0  0  0
  -11.4855   19.0012  -27.9569 C   0  0  0  0  0  0  0  0  0  0  0  0
  -11.1257   17.8602  -28.6530 C   0  0  0  0  0  0  0  0  0  0  0  0
  -11.8540   16.7961  -28.1753 C   0  0  0  0  0  0  0  0  0  0  0  0
  -11.7776   15.4158  -28.6379 C   0  0  0  0  0  0  0  0  0  0  0  0
  -10.8744   14.9888  -29.5780 C   0  0  0  0  0  0  0  0  0  0  0  0
  -10.8166   13.6823  -30.0027 C   0  0  0  0  0  0  0  0  0  0  0  0
  -11.7015   12.8358  -29.4420 N   0  0  0  0  0  0  0  0  0  0  0  0
  -12.5927   13.1858  -28.5347 C   0  0  0  0  0  0  0  0  0  0  0  0
  -13.5007   12.2754  -27.9713 N   0  0  0  0  0  0  0  0  0  0  0  0
  -14.5488   12.5620  -27.0563 C   0  0  0  0  0  0  0  0  0  0  0  0
  -14.6328   13.7025  -26.2936 C   0  0  0  0  0  0  0  0  0  0  0  0
  -15.6825   13.9163  -25.4223 C   0  0  0  0  0  0  0  0  0  0  0  0
  -16.6940   12.9978  -25.2765 C   0  0  0  0  0  0  0  0  0  0  0  0
  -16.6193   11.8490  -26.0378 C   0  0  0  0  0  0  0  0  0  0  0  0
  -15.5886   11.6344  -26.8962 C   0  0  0  0  0  0  0  0  0  0  0  0
  -15.5504   10.4578  -27.6490 O   0  0  0  0  0  0  0  0  0  0  0  0
  -16.5544    9.4929  -27.6084 C   0  0  0  0  0  0  0  0  0  0  0  0
  -12.6234   14.5079  -28.1302 N   0  0  0  0  0  0  0  0  0  0  0  0
  -12.6353   17.2826  -27.2129 N   0  0  0  0  0  0  0  0  0  0  0  0
  -12.4432   18.6253  -27.0448 C   0  0  0  0  0  0  0  0  0  0  0  0
  1  2  2  0
  2  3  1  0
  3  4  2  0
  5  3  1  6
  5  6  1  0
  6  7  1  0
  8  7  1  1
  8  9  1  0
  9 10  1  0
  8 11  1  0
 11 12  1  0
 12 13  1  0
 13 14  2  0
 13 15  1  0
 15 16  1  0
 16 17  2  0
 17 18  1  0
 18 19  2  0
 19 20  1  0
 20 21  2  0
 21 22  1  0
 22 23  1  0
 23 24  1  0
 24 25  2  0
 25 26  1  0
 26 27  2  0
 27 28  1  0
 28 29  2  0
 29 30  1  0
 30 31  1  0
 22 32  2  0
 17 33  1  0
 33 34  1  0
 10  5  1  0
 34 15  2  0
 34  8  1  0
 32 18  1  0
 29 24  1  0
M  CHG  1   5   1
M  END
$$$$
CHEMBL5077776_diffdock_8
     RDKit          3D

 34 38  0  0  0  0  0  0  0  0999 V2000
  -15.7778   16.6593  -22.3841 C   0  0  0  0  0  0  0  0  0  0  0  0
  -14.4806   16.9387  -22.4243 C   0  0  0  0  0  0  0  0  0  0  0  0
  -14.0014   18.1412  -23.0479 C   0  0  0  0  0  0  0  0  0  0  0  0
  -13.0542   17.9086  -23.7980 O   0  0  0  0  0  0  0  0  0  0  0  0
  -14.0320   19.4744  -23.2691 N   0  0  2  0  0  4  0  0  0  0  0  0
  -14.7237   19.8260  -24.4568 C   0  0  0  0  0  0  0  0  0  0  0  0
  -14.2329   19.1275  -25.6660 C   0  0  0  0  0  0  0  0  0  0  0  0
  -12.8738   19.7066  -26.0056 C   0  0  2  0  0  0  0  0  0  0  0  0
  -12.0373   19.8536  -24.7616 C   0  0  0  0  0  0  0  0  0  0  0  0
  -12.7185   20.1759  -23.5140 C   0  0  0  0  0  0  0  0  0  0  0  0
  -13.0044   21.0483  -26.6840 C   0  0  0  0  0  0  0  0  0  0  0  0
  -11.6351   21.4878  -27.0128 N   0  0  0  0  0  0  0  0  0  0  0  0
  -10.9424   20.6370  -27.9154 C   0  0  0  0  0  0  0  0  0  0  0  0
  -10.0934   21.0691  -28.7183 O   0  0  0  0  0  0  0  0  0  0  0  0
  -11.2869   19.2061  -27.8475 C   0  0  0  0  0  0  0  0  0  0  0  0
  -10.8589   18.0986  -28.5588 C   0  0  0  0  0  0  0  0  0  0  0  0
  -11.5277   16.9872  -28.1019 C   0  0  0  0  0  0  0  0  0  0  0  0
  -11.3701   15.6210  -28.5852 C   0  0  0  0  0  0  0  0  0  0  0  0
  -10.3901   15.2465  -29.4690 C   0  0  0  0  0  0  0  0  0  0  0  0
  -10.2563   13.9524  -29.9143 C   0  0  0  0  0  0  0  0  0  0  0  0
  -11.1463   13.0636  -29.4327 N   0  0  0  0  0  0  0  0  0  0  0  0
  -12.1094   13.3624  -28.5823 C   0  0  0  0  0  0  0  0  0  0  0  0
  -13.0203   12.4089  -28.1008 N   0  0  0  0  0  0  0  0  0  0  0  0
  -14.0695   12.6180  -27.1664 C   0  0  0  0  0  0  0  0  0  0  0  0
  -14.1634   13.6993  -26.3230 C   0  0  0  0  0  0  0  0  0  0  0  0
  -15.2137   13.8390  -25.4374 C   0  0  0  0  0  0  0  0  0  0  0  0
  -16.2160   12.9023  -25.3576 C   0  0  0  0  0  0  0  0  0  0  0  0
  -16.1313   11.8125  -26.2003 C   0  0  0  0  0  0  0  0  0  0  0  0
  -15.0999   11.6709  -27.0730 C   0  0  0  0  0  0  0  0  0  0  0  0
  -15.0514   10.5524  -27.9092 O   0  0  0  0  0  0  0  0  0  0  0  0
  -15.9907    9.5246  -27.8641 C   0  0  0  0  0  0  0  0  0  0  0  0
  -12.2152   14.6733  -28.1550 N   0  0  0  0  0  0  0  0  0  0  0  0
  -12.3403   17.4133  -27.1369 N   0  0  0  0  0  0  0  0  0  0  0  0
  -12.2262   18.7619  -26.9470 C   0  0  0  0  0  0  0  0  0  0  0  0
  1  2  2  0
  2  3  1  0
  3  4  2  0
  5  3  1  6
  5  6  1  0
  6  7  1  0
  8  7  1  1
  8  9  1  0
  9 10  1  0
  8 11  1  0
 11 12  1  0
 12 13  1  0
 13 14  2  0
 13 15  1  0
 15 16  1  0
 16 17  2  0
 17 18  1  0
 18 19  2  0
 19 20  1  0
 20 21  2  0
 21 22  1  0
 22 23  1  0
 23 24  1  0
 24 25  2  0
 25 26  1  0
 26 27  2  0
 27 28  1  0
 28 29  2  0
 29 30  1  0
 30 31  1  0
 22 32  2  0
 17 33  1  0
 33 34  1  0
 10  5  1  0
 34 15  2  0
 34  8  1  0
 32 18  1  0
 29 24  1  0
M  CHG  1   5   1
M  END
$$$$
CHEMBL5077776_diffdock_9
     RDKit          3D

 34 38  0  0  0  0  0  0  0  0999 V2000
   -7.7979   21.7249  -30.5316 C   0  0  0  0  0  0  0  0  0  0  0  0
   -8.7773   20.8860  -30.2163 C   0  0  0  0  0  0  0  0  0  0  0  0
   -9.5066   21.0284  -28.9865 C   0  0  0  0  0  0  0  0  0  0  0  0
   -9.9831   19.9539  -28.6226 O   0  0  0  0  0  0  0  0  0  0  0  0
   -9.9814   21.7517  -27.9479 N   0  0  2  0  0  4  0  0  0  0  0  0
   -9.7227   21.1532  -26.6881 C   0  0  0  0  0  0  0  0  0  0  0  0
  -10.1920   19.7534  -26.5811 C   0  0  0  0  0  0  0  0  0  0  0  0
  -11.7062   19.7848  -26.5197 C   0  0  2  0  0  0  0  0  0  0  0  0
  -12.2557   20.7457  -27.5411 C   0  0  0  0  0  0  0  0  0  0  0  0
  -11.4755   21.9383  -27.8470 C   0  0  0  0  0  0  0  0  0  0  0  0
  -12.1902   20.1812  -25.1464 C   0  0  0  0  0  0  0  0  0  0  0  0
  -13.6638   20.1271  -25.1885 N   0  0  0  0  0  0  0  0  0  0  0  0
  -14.2002   18.8392  -25.4570 C   0  0  0  0  0  0  0  0  0  0  0  0
  -15.2966   18.4663  -24.9977 O   0  0  0  0  0  0  0  0  0  0  0  0
  -13.3816   17.9648  -26.3148 C   0  0  0  0  0  0  0  0  0  0  0  0
  -13.5471   16.6683  -26.7703 C   0  0  0  0  0  0  0  0  0  0  0  0
  -12.4576   16.3194  -27.5334 C   0  0  0  0  0  0  0  0  0  0  0  0
  -12.2385   15.0407  -28.1981 C   0  0  0  0  0  0  0  0  0  0  0  0
  -11.1979   14.8134  -29.0626 C   0  0  0  0  0  0  0  0  0  0  0  0
  -11.0064   13.6002  -29.6809 C   0  0  0  0  0  0  0  0  0  0  0  0
  -11.9027   12.6377  -29.3905 N   0  0  0  0  0  0  0  0  0  0  0  0
  -12.9226   12.7951  -28.5688 C   0  0  0  0  0  0  0  0  0  0  0  0
  -13.8382   11.7683  -28.2893 N   0  0  0  0  0  0  0  0  0  0  0  0
  -14.9499   11.8251  -27.4069 C   0  0  0  0  0  0  0  0  0  0  0  0
  -15.1704   12.8232  -26.4879 C   0  0  0  0  0  0  0  0  0  0  0  0
  -16.2753   12.8149  -25.6597 C   0  0  0  0  0  0  0  0  0  0  0  0
  -17.2078   11.8072  -25.7153 C   0  0  0  0  0  0  0  0  0  0  0  0
  -16.9958   10.7999  -26.6348 C   0  0  0  0  0  0  0  0  0  0  0  0
  -15.9103   10.8039  -27.4516 C   0  0  0  0  0  0  0  0  0  0  0  0
  -15.7326    9.7650  -28.3690 O   0  0  0  0  0  0  0  0  0  0  0  0
  -16.5824    8.6641  -28.4493 C   0  0  0  0  0  0  0  0  0  0  0  0
  -13.0855   14.0280  -27.9641 N   0  0  0  0  0  0  0  0  0  0  0  0
  -11.6530   17.3804  -27.5393 N   0  0  0  0  0  0  0  0  0  0  0  0
  -12.1775   18.4091  -26.8081 C   0  0  0  0  0  0  0  0  0  0  0  0
  1  2  2  0
  2  3  1  0
  3  4  2  0
  5  3  1  6
  5  6  1  0
  6  7  1  0
  8  7  1  1
  8  9  1  0
  9 10  1  0
  8 11  1  0
 11 12  1  0
 12 13  1  0
 13 14  2  0
 13 15  1  0
 15 16  1  0
 16 17  2  0
 17 18  1  0
 18 19  2  0
 19 20  1  0
 20 21  2  0
 21 22  1  0
 22 23  1  0
 23 24  1  0
 24 25  2  0
 25 26  1  0
 26 27  2  0
 27 28  1  0
 28 29  2  0
 29 30  1  0
 30 31  1  0
 22 32  2  0
 17 33  1  0
 33 34  1  0
 10  5  1  0
 34 15  2  0
 34  8  1  0
 32 18  1  0
 29 24  1  0
M  CHG  1   5   1
M  END
$$$$
CHEMBL5077776_diffdock_10
     RDKit          3D

 34 38  0  0  0  0  0  0  0  0999 V2000
  -25.2854 -119.4097  -21.2695 C   0  0  0  0  0  0  0  0  0  0  0  0
  -24.7513 -118.2021  -21.1325 C   0  0  0  0  0  0  0  0  0  0  0  0
  -23.4048 -117.9358  -21.5574 C   0  0  0  0  0  0  0  0  0  0  0  0
  -22.6056 -118.0948  -20.6356 O   0  0  0  0  0  0  0  0  0  0  0  0
  -22.4845 -117.5824  -22.4823 N   0  0  2  0  0  4  0  0  0  0  0  0
  -21.1627 -117.5493  -21.9681 C   0  0  0  0  0  0  0  0  0  0  0  0
  -21.0097 -116.7074  -20.7603 C   0  0  0  0  0  0  0  0  0  0  0  0
  -21.1283 -115.2605  -21.1965 C   0  0  2  0  0  0  0  0  0  0  0  0
  -22.2743 -115.0921  -22.1593 C   0  0  0  0  0  0  0  0  0  0  0  0
  -22.5729 -116.1936  -23.0659 C   0  0  0  0  0  0  0  0  0  0  0  0
  -19.8536 -114.7778  -21.8442 C   0  0  0  0  0  0  0  0  0  0  0  0
  -20.0638 -113.3561  -22.1771 N   0  0  0  0  0  0  0  0  0  0  0  0
  -20.2987 -112.5155  -21.0562 C   0  0  0  0  0  0  0  0  0  0  0  0
  -19.9449 -111.3211  -21.0347 O   0  0  0  0  0  0  0  0  0  0  0  0
  -20.9888 -113.1399  -19.9140 C   0  0  0  0  0  0  0  0  0  0  0  0
  -21.3648 -112.6693  -18.6678 C   0  0  0  0  0  0  0  0  0  0  0  0
  -21.9677 -113.6879  -17.9679 C   0  0  0  0  0  0  0  0  0  0  0  0
  -22.5073 -113.6099  -16.6160 C   0  0  0  0  0  0  0  0  0  0  0  0
  -22.9801 -112.4469  -16.0631 C   0  0  0  0  0  0  0  0  0  0  0  0
  -23.4858 -112.3918  -14.7856 C   0  0  0  0  0  0  0  0  0  0  0  0
  -23.4926 -113.5506  -14.0991 N   0  0  0  0  0  0  0  0  0  0  0  0
  -23.0525 -114.6994  -14.5754 C   0  0  0  0  0  0  0  0  0  0  0  0
  -23.0750 -115.8889  -13.8305 N   0  0  0  0  0  0  0  0  0  0  0  0
  -22.6479 -117.1760  -14.2536 C   0  0  0  0  0  0  0  0  0  0  0  0
  -22.6458 -117.6112  -15.5575 C   0  0  0  0  0  0  0  0  0  0  0  0
  -22.2159 -118.8785  -15.8981 C   0  0  0  0  0  0  0  0  0  0  0  0
  -21.7695 -119.7654  -14.9483 C   0  0  0  0  0  0  0  0  0  0  0  0
  -21.7676 -119.3384  -13.6359 C   0  0  0  0  0  0  0  0  0  0  0  0
  -22.1895 -118.0927  -13.2961 C   0  0  0  0  0  0  0  0  0  0  0  0
  -22.1717 -117.6992  -11.9554 O   0  0  0  0  0  0  0  0  0  0  0  0
  -21.3295 -116.7047  -11.4631 C   0  0  0  0  0  0  0  0  0  0  0  0
  -22.5505 -114.7189  -15.8638 N   0  0  0  0  0  0  0  0  0  0  0  0
  -21.9567 -114.7489  -18.7725 N   0  0  0  0  0  0  0  0  0  0  0  0
  -21.3689 -114.4600  -19.9721 C   0  0  0  0  0  0  0  0  0  0  0  0
  1  2  2  0
  2  3  1  0
  3  4  2  0
  5  3  1  1
  5  6  1  0
  6  7  1  0
  8  7  1  1
  8  9  1  0
  9 10  1  0
  8 11  1  0
 11 12  1  0
 12 13  1  0
 13 14  2  0
 13 15  1  0
 15 16  1  0
 16 17  2  0
 17 18  1  0
 18 19  2  0
 19 20  1  0
 20 21  2  0
 21 22  1  0
 22 23  1  0
 23 24  1  0
 24 25  2  0
 25 26  1  0
 26 27  2  0
 27 28  1  0
 28 29  2  0
 29 30  1  0
 30 31  1  0
 22 32  2  0
 17 33  1  0
 33 34  1  0
 10  5  1  0
 34 15  2  0
 34  8  1  0
 32 18  1  0
 29 24  1  0
M  CHG  1   5   1
M  END
$$$$
CHEMBL5088102_diffdock_1
     RDKit          3D

 37 41  0  0  0  0  0  0  0  0999 V2000
  -15.9018    8.8016  -28.5309 C   0  0  0  0  0  0  0  0  0  0  0  0
  -15.1019    9.9797  -28.4366 O   0  0  0  0  0  0  0  0  0  0  0  0
  -15.5311   11.0054  -27.5057 C   0  0  0  0  0  0  0  0  0  0  0  0
  -16.6208   10.8274  -26.7584 C   0  0  0  0  0  0  0  0  0  0  0  0
  -17.0450   11.8585  -25.8574 C   0  0  0  0  0  0  0  0  0  0  0  0
  -16.2495   12.9783  -25.8617 C   0  0  0  0  0  0  0  0  0  0  0  0
  -15.1309   13.1486  -26.6331 C   0  0  0  0  0  0  0  0  0  0  0  0
  -14.7027   12.1631  -27.5071 C   0  0  0  0  0  0  0  0  0  0  0  0
  -13.5168   12.1468  -28.2635 N   0  0  0  0  0  0  0  0  0  0  0  0
  -12.7581   13.1780  -28.7306 C   0  0  0  0  0  0  0  0  0  0  0  0
  -11.5801   12.7968  -29.6335 N   0  0  0  0  0  0  0  0  0  0  0  0
  -10.8540   13.8697  -29.9206 C   0  0  0  0  0  0  0  0  0  0  0  0
  -10.9802   15.1761  -29.5720 C   0  0  0  0  0  0  0  0  0  0  0  0
  -12.0815   15.4928  -28.7507 C   0  0  0  0  0  0  0  0  0  0  0  0
  -12.3101   16.7850  -28.1683 C   0  0  0  0  0  0  0  0  0  0  0  0
  -11.5186   17.9242  -28.4536 C   0  0  0  0  0  0  0  0  0  0  0  0
  -12.0813   19.0047  -27.8549 C   0  0  0  0  0  0  0  0  0  0  0  0
  -13.1873   18.5423  -27.2042 C   0  0  0  0  0  0  0  0  0  0  0  0
  -13.3052   17.1972  -27.4111 N   0  0  0  0  0  0  0  0  0  0  0  0
  -13.9467   19.5266  -26.3528 C   0  0  1  0  0  0  0  0  0  0  0  0
  -14.9945   18.7728  -25.6907 C   0  0  0  0  0  0  0  0  0  0  0  0
  -15.6440   19.4436  -24.4499 C   0  0  0  0  0  0  0  0  0  0  0  0
  -14.6973   19.8134  -23.5201 N   0  0  2  0  0  4  0  0  0  0  0  0
  -15.2872   20.4943  -22.3342 C   0  0  0  0  0  0  0  0  0  0  0  0
  -16.0084   19.6316  -22.1997 O   0  0  0  0  0  0  0  0  0  0  0  0
  -14.9940   21.5953  -21.7863 C   0  0  0  0  0  0  0  0  0  0  0  0
  -14.6702   22.7847  -21.2128 C   0  0  0  0  0  0  0  0  0  0  0  0
  -14.3185   24.0702  -20.5967 N   0  0  0  0  0  0  0  0  0  0  0  0
  -14.0452   25.2463  -21.2865 C   0  0  0  0  0  0  0  0  0  0  0  0
  -14.3031   23.9599  -19.1454 C   0  0  0  0  0  0  0  0  0  0  0  0
  -13.8895   20.7895  -24.3355 C   0  0  0  0  0  0  0  0  0  0  0  0
  -12.9844   20.0133  -25.2558 C   0  0  0  0  0  0  0  0  0  0  0  0
  -14.2240   20.7106  -27.2028 C   0  0  0  0  0  0  0  0  0  0  0  0
  -12.8579   21.3472  -27.2834 N   0  0  0  0  0  0  0  0  0  0  0  0
  -11.8969   20.4798  -27.8929 C   0  0  0  0  0  0  0  0  0  0  0  0
  -10.8607   20.8899  -28.4816 O   0  0  0  0  0  0  0  0  0  0  0  0
  -12.7447   14.3997  -28.5046 N   0  0  0  0  0  0  0  0  0  0  0  0
  1  2  1  0
  2  3  1  0
  3  4  2  0
  4  5  1  0
  5  6  2  0
  6  7  1  0
  7  8  2  0
  8  9  1  0
  9 10  1  0
 10 11  2  0
 11 12  1  0
 12 13  2  0
 13 14  1  0
 14 15  1  0
 15 16  2  0
 16 17  1  0
 17 18  2  0
 18 19  1  0
 18 20  1  0
 20 21  1  1
 21 22  1  0
 22 23  1  0
 23 24  1  1
 24 25  2  0
 24 26  1  0
 26 27  3  0
 27 28  1  0
 28 29  1  0
 28 30  1  0
 23 31  1  0
 31 32  1  0
 20 33  1  0
 33 34  1  0
 34 35  1  0
 35 36  2  0
 14 37  2  0
  8  3  1  0
 37 10  1  0
 19 15  1  0
 32 20  1  0
 35 17  1  0
M  CHG  1  23   1
M  END
$$$$
CHEMBL5088102_diffdock_2
     RDKit          3D

 37 41  0  0  0  0  0  0  0  0999 V2000
  -16.8897    9.1303  -27.8014 C   0  0  0  0  0  0  0  0  0  0  0  0
  -15.9240   10.1804  -27.8382 O   0  0  0  0  0  0  0  0  0  0  0  0
  -16.0995   11.2815  -26.9110 C   0  0  0  0  0  0  0  0  0  0  0  0
  -17.1214   11.2883  -26.0547 C   0  0  0  0  0  0  0  0  0  0  0  0
  -17.2942   12.3933  -25.1580 C   0  0  0  0  0  0  0  0  0  0  0  0
  -16.3464   13.3796  -25.2837 C   0  0  0  0  0  0  0  0  0  0  0  0
  -15.2996   13.3601  -26.1663 C   0  0  0  0  0  0  0  0  0  0  0  0
  -15.1134   12.3003  -27.0384 C   0  0  0  0  0  0  0  0  0  0  0  0
  -14.0264   12.0866  -27.9054 N   0  0  0  0  0  0  0  0  0  0  0  0
  -13.1327   12.9721  -28.4290 C   0  0  0  0  0  0  0  0  0  0  0  0
  -12.0050   12.3741  -29.2770 N   0  0  0  0  0  0  0  0  0  0  0  0
  -11.1402   13.3185  -29.6250 C   0  0  0  0  0  0  0  0  0  0  0  0
  -11.0966   14.6524  -29.3737 C   0  0  0  0  0  0  0  0  0  0  0  0
  -12.1558   15.1705  -28.6009 C   0  0  0  0  0  0  0  0  0  0  0  0
  -12.2184   16.5209  -28.1177 C   0  0  0  0  0  0  0  0  0  0  0  0
  -11.3189   17.5389  -28.5184 C   0  0  0  0  0  0  0  0  0  0  0  0
  -11.7358   18.7184  -27.9916 C   0  0  0  0  0  0  0  0  0  0  0  0
  -12.8589   18.4342  -27.2716 C   0  0  0  0  0  0  0  0  0  0  0  0
  -13.1314   17.0990  -27.3656 N   0  0  0  0  0  0  0  0  0  0  0  0
  -13.4716   19.5599  -26.4791 C   0  0  1  0  0  0  0  0  0  0  0  0
  -14.5684   18.9814  -25.7262 C   0  0  0  0  0  0  0  0  0  0  0  0
  -15.0907   19.8140  -24.5239 C   0  0  0  0  0  0  0  0  0  0  0  0
  -14.0728   20.1455  -23.6568 N   0  0  2  0  0  4  0  0  0  0  0  0
  -14.5370   20.9771  -22.5119 C   0  0  0  0  0  0  0  0  0  0  0  0
  -14.1584   21.9069  -23.0359 O   0  0  0  0  0  0  0  0  0  0  0  0
  -15.1246   20.6500  -21.4414 C   0  0  0  0  0  0  0  0  0  0  0  0
  -15.7521   20.2805  -20.2932 C   0  0  0  0  0  0  0  0  0  0  0  0
  -16.4319   19.8848  -19.0534 N   0  0  0  0  0  0  0  0  0  0  0  0
  -16.3049   18.6519  -18.4231 C   0  0  0  0  0  0  0  0  0  0  0  0
  -17.2619   20.9699  -18.5511 C   0  0  0  0  0  0  0  0  0  0  0  0
  -13.1963   20.9593  -24.5730 C   0  0  0  0  0  0  0  0  0  0  0  0
  -12.4189   20.0182  -25.4554 C   0  0  0  0  0  0  0  0  0  0  0  0
  -13.6513   20.6989  -27.4127 C   0  0  0  0  0  0  0  0  0  0  0  0
  -12.2281   21.1701  -27.5869 N   0  0  0  0  0  0  0  0  0  0  0  0
  -11.3928   20.1562  -28.1540 C   0  0  0  0  0  0  0  0  0  0  0  0
  -10.3423   20.4012  -28.8058 O   0  0  0  0  0  0  0  0  0  0  0  0
  -12.9605   14.1949  -28.2911 N   0  0  0  0  0  0  0  0  0  0  0  0
  1  2  1  0
  2  3  1  0
  3  4  2  0
  4  5  1  0
  5  6  2  0
  6  7  1  0
  7  8  2  0
  8  9  1  0
  9 10  1  0
 10 11  2  0
 11 12  1  0
 12 13  2  0
 13 14  1  0
 14 15  1  0
 15 16  2  0
 16 17  1  0
 17 18  2  0
 18 19  1  0
 18 20  1  0
 20 21  1  1
 21 22  1  0
 22 23  1  0
 23 24  1  1
 24 25  2  0
 24 26  1  0
 26 27  3  0
 27 28  1  0
 28 29  1  0
 28 30  1  0
 23 31  1  0
 31 32  1  0
 20 33  1  0
 33 34  1  0
 34 35  1  0
 35 36  2  0
 14 37  2  0
  8  3  1  0
 37 10  1  0
 19 15  1  0
 32 20  1  0
 35 17  1  0
M  CHG  1  23   1
M  END
$$$$
CHEMBL5088102_diffdock_3
     RDKit          3D

 37 41  0  0  0  0  0  0  0  0999 V2000
  -16.0409    8.4246  -27.9254 C   0  0  0  0  0  0  0  0  0  0  0  0
  -15.1840    9.5656  -27.9464 O   0  0  0  0  0  0  0  0  0  0  0  0
  -15.5428   10.6858  -27.0982 C   0  0  0  0  0  0  0  0  0  0  0  0
  -16.5838   10.6004  -26.2695 C   0  0  0  0  0  0  0  0  0  0  0  0
  -16.9395   11.7229  -25.4519 C   0  0  0  0  0  0  0  0  0  0  0  0
  -16.1355   12.8239  -25.6191 C   0  0  0  0  0  0  0  0  0  0  0  0
  -15.0673   12.8987  -26.4726 C   0  0  0  0  0  0  0  0  0  0  0  0
  -14.7054   11.8243  -27.2682 C   0  0  0  0  0  0  0  0  0  0  0  0
  -13.5708   11.7139  -28.0925 N   0  0  0  0  0  0  0  0  0  0  0  0
  -12.7121   12.6734  -28.5389 C   0  0  0  0  0  0  0  0  0  0  0  0
  -11.5049   12.1799  -29.3434 N   0  0  0  0  0  0  0  0  0  0  0  0
  -10.6880   13.1899  -29.6141 C   0  0  0  0  0  0  0  0  0  0  0  0
  -10.7463   14.5142  -29.3188 C   0  0  0  0  0  0  0  0  0  0  0  0
  -11.8762   14.9351  -28.5881 C   0  0  0  0  0  0  0  0  0  0  0  0
  -12.0533   16.2608  -28.0664 C   0  0  0  0  0  0  0  0  0  0  0  0
  -11.2266   17.3568  -28.4145 C   0  0  0  0  0  0  0  0  0  0  0  0
  -11.7448   18.4836  -27.8629 C   0  0  0  0  0  0  0  0  0  0  0  0
  -12.8581   18.0917  -27.1792 C   0  0  0  0  0  0  0  0  0  0  0  0
  -13.0245   16.7432  -27.3197 N   0  0  0  0  0  0  0  0  0  0  0  0
  -13.5729   19.1416  -26.3685 C   0  0  1  0  0  0  0  0  0  0  0  0
  -14.6380   18.4573  -25.6601 C   0  0  0  0  0  0  0  0  0  0  0  0
  -15.2492   19.2090  -24.4464 C   0  0  0  0  0  0  0  0  0  0  0  0
  -14.2793   19.5897  -23.5453 N   0  0  2  0  0  4  0  0  0  0  0  0
  -14.8312   20.3467  -22.3877 C   0  0  0  0  0  0  0  0  0  0  0  0
  -15.4122   19.4291  -22.0667 O   0  0  0  0  0  0  0  0  0  0  0  0
  -14.6345   21.5382  -22.0137 C   0  0  0  0  0  0  0  0  0  0  0  0
  -14.4133   22.8133  -21.5967 C   0  0  0  0  0  0  0  0  0  0  0  0
  -14.1779   24.1902  -21.1444 N   0  0  0  0  0  0  0  0  0  0  0  0
  -14.8395   24.8176  -20.0945 C   0  0  0  0  0  0  0  0  0  0  0  0
  -13.1372   24.8241  -21.9404 C   0  0  0  0  0  0  0  0  0  0  0  0
  -13.4483   20.4968  -24.4152 C   0  0  0  0  0  0  0  0  0  0  0  0
  -12.5815   19.6464  -25.3063 C   0  0  0  0  0  0  0  0  0  0  0  0
  -13.8196   20.2925  -27.2717 C   0  0  0  0  0  0  0  0  0  0  0  0
  -12.4336   20.8765  -27.3971 N   0  0  0  0  0  0  0  0  0  0  0  0
  -11.5103   19.9479  -27.9739 C   0  0  0  0  0  0  0  0  0  0  0  0
  -10.4678   20.2930  -28.5924 O   0  0  0  0  0  0  0  0  0  0  0  0
  -12.6291   13.8991  -28.3531 N   0  0  0  0  0  0  0  0  0  0  0  0
  1  2  1  0
  2  3  1  0
  3  4  2  0
  4  5  1  0
  5  6  2  0
  6  7  1  0
  7  8  2  0
  8  9  1  0
  9 10  1  0
 10 11  2  0
 11 12  1  0
 12 13  2  0
 13 14  1  0
 14 15  1  0
 15 16  2  0
 16 17  1  0
 17 18  2  0
 18 19  1  0
 18 20  1  0
 20 21  1  1
 21 22  1  0
 22 23  1  0
 23 24  1  1
 24 25  2  0
 24 26  1  0
 26 27  3  0
 27 28  1  0
 28 29  1  0
 28 30  1  0
 23 31  1  0
 31 32  1  0
 20 33  1  0
 33 34  1  0
 34 35  1  0
 35 36  2  0
 14 37  2  0
  8  3  1  0
 37 10  1  0
 19 15  1  0
 32 20  1  0
 35 17  1  0
M  CHG  1  23   1
M  END
$$$$
CHEMBL5088102_diffdock_4
     RDKit          3D

 37 41  0  0  0  0  0  0  0  0999 V2000
  -16.4846    8.8082  -28.4952 C   0  0  0  0  0  0  0  0  0  0  0  0
  -15.5664    9.8999  -28.4505 O   0  0  0  0  0  0  0  0  0  0  0  0
  -15.8579   10.9799  -27.5276 C   0  0  0  0  0  0  0  0  0  0  0  0
  -16.9350   10.9275  -26.7437 C   0  0  0  0  0  0  0  0  0  0  0  0
  -17.2219   12.0119  -25.8510 C   0  0  0  0  0  0  0  0  0  0  0  0
  -16.3165   13.0436  -25.9023 C   0  0  0  0  0  0  0  0  0  0  0  0
  -15.2122   13.0849  -26.7110 C   0  0  0  0  0  0  0  0  0  0  0  0
  -14.9159   12.0460  -27.5777 C   0  0  0  0  0  0  0  0  0  0  0  0
  -13.7632   11.8950  -28.3698 N   0  0  0  0  0  0  0  0  0  0  0  0
  -12.8671   12.8255  -28.8040 C   0  0  0  0  0  0  0  0  0  0  0  0
  -11.7054   12.3011  -29.6548 N   0  0  0  0  0  0  0  0  0  0  0  0
  -10.8445   13.2778  -29.9107 C   0  0  0  0  0  0  0  0  0  0  0  0
  -10.8284   14.5920  -29.5684 C   0  0  0  0  0  0  0  0  0  0  0  0
  -11.9182   15.0427  -28.7959 C   0  0  0  0  0  0  0  0  0  0  0  0
  -12.0154   16.3561  -28.2245 C   0  0  0  0  0  0  0  0  0  0  0  0
  -11.1100   17.4058  -28.5148 C   0  0  0  0  0  0  0  0  0  0  0  0
  -11.5613   18.5432  -27.9271 C   0  0  0  0  0  0  0  0  0  0  0  0
  -12.7115   18.2019  -27.2782 C   0  0  0  0  0  0  0  0  0  0  0  0
  -12.9659   16.8744  -27.4753 N   0  0  0  0  0  0  0  0  0  0  0  0
  -13.3693   19.2658  -26.4380 C   0  0  1  0  0  0  0  0  0  0  0  0
  -14.4916   18.6289  -25.7753 C   0  0  0  0  0  0  0  0  0  0  0  0
  -15.0738   19.3728  -24.5428 C   0  0  0  0  0  0  0  0  0  0  0  0
  -14.0979   19.6512  -23.6113 N   0  0  2  0  0  4  0  0  0  0  0  0
  -14.6195   20.3986  -22.4335 C   0  0  0  0  0  0  0  0  0  0  0  0
  -15.2724   19.5136  -22.1631 O   0  0  0  0  0  0  0  0  0  0  0  0
  -14.3457   21.5562  -22.0056 C   0  0  0  0  0  0  0  0  0  0  0  0
  -14.0633   22.8085  -21.5576 C   0  0  0  0  0  0  0  0  0  0  0  0
  -13.7544   24.1598  -21.0735 N   0  0  0  0  0  0  0  0  0  0  0  0
  -12.8804   24.4636  -20.0355 C   0  0  0  0  0  0  0  0  0  0  0  0
  -14.4828   25.1611  -21.8386 C   0  0  0  0  0  0  0  0  0  0  0  0
  -13.1910   20.5326  -24.4303 C   0  0  0  0  0  0  0  0  0  0  0  0
  -12.3666   19.6602  -25.3402 C   0  0  0  0  0  0  0  0  0  0  0  0
  -13.5203   20.4651  -27.2984 C   0  0  0  0  0  0  0  0  0  0  0  0
  -12.0958   20.9576  -27.3774 N   0  0  0  0  0  0  0  0  0  0  0  0
  -11.2264   19.9912  -27.9755 C   0  0  0  0  0  0  0  0  0  0  0  0
  -10.1513   20.2881  -28.5624 O   0  0  0  0  0  0  0  0  0  0  0  0
  -12.7174   14.0381  -28.5782 N   0  0  0  0  0  0  0  0  0  0  0  0
  1  2  1  0
  2  3  1  0
  3  4  2  0
  4  5  1  0
  5  6  2  0
  6  7  1  0
  7  8  2  0
  8  9  1  0
  9 10  1  0
 10 11  2  0
 11 12  1  0
 12 13  2  0
 13 14  1  0
 14 15  1  0
 15 16  2  0
 16 17  1  0
 17 18  2  0
 18 19  1  0
 18 20  1  0
 20 21  1  1
 21 22  1  0
 22 23  1  0
 23 24  1  1
 24 25  2  0
 24 26  1  0
 26 27  3  0
 27 28  1  0
 28 29  1  0
 28 30  1  0
 23 31  1  0
 31 32  1  0
 20 33  1  0
 33 34  1  0
 34 35  1  0
 35 36  2  0
 14 37  2  0
  8  3  1  0
 37 10  1  0
 19 15  1  0
 32 20  1  0
 35 17  1  0
M  CHG  1  23   1
M  END
$$$$
CHEMBL5088102_diffdock_5
     RDKit          3D

 37 41  0  0  0  0  0  0  0  0999 V2000
  -16.1955    8.6302  -27.3336 C   0  0  0  0  0  0  0  0  0  0  0  0
  -15.3201    9.7521  -27.4415 O   0  0  0  0  0  0  0  0  0  0  0  0
  -15.6365   10.9245  -26.6487 C   0  0  0  0  0  0  0  0  0  0  0  0
  -16.6786   10.9175  -25.8172 C   0  0  0  0  0  0  0  0  0  0  0  0
  -16.9919   12.0906  -25.0551 C   0  0  0  0  0  0  0  0  0  0  0  0
  -16.1485   13.1521  -25.2753 C   0  0  0  0  0  0  0  0  0  0  0  0
  -15.0796   13.1463  -26.1312 C   0  0  0  0  0  0  0  0  0  0  0  0
  -14.7584   12.0221  -26.8736 C   0  0  0  0  0  0  0  0  0  0  0  0
  -13.6298   11.8304  -27.6913 N   0  0  0  0  0  0  0  0  0  0  0  0
  -12.8033   12.7425  -28.2763 C   0  0  0  0  0  0  0  0  0  0  0  0
  -11.6849   12.1753  -29.1571 N   0  0  0  0  0  0  0  0  0  0  0  0
  -10.8827   13.1496  -29.5669 C   0  0  0  0  0  0  0  0  0  0  0  0
  -10.8935   14.4906  -29.3524 C   0  0  0  0  0  0  0  0  0  0  0  0
  -11.9429   14.9791  -28.5476 C   0  0  0  0  0  0  0  0  0  0  0  0
  -12.0505   16.3380  -28.0972 C   0  0  0  0  0  0  0  0  0  0  0  0
  -11.2204   17.3863  -28.5640 C   0  0  0  0  0  0  0  0  0  0  0  0
  -11.6714   18.5588  -28.0497 C   0  0  0  0  0  0  0  0  0  0  0  0
  -12.7468   18.2415  -27.2731 C   0  0  0  0  0  0  0  0  0  0  0  0
  -12.9573   16.8926  -27.3202 N   0  0  0  0  0  0  0  0  0  0  0  0
  -13.3789   19.3583  -26.4833 C   0  0  1  0  0  0  0  0  0  0  0  0
  -14.4122   18.7493  -25.6673 C   0  0  0  0  0  0  0  0  0  0  0  0
  -14.9219   19.5893  -24.4648 C   0  0  0  0  0  0  0  0  0  0  0  0
  -13.8848   19.9933  -23.6530 N   0  0  2  0  0  4  0  0  0  0  0  0
  -14.3390   20.8335  -22.5104 C   0  0  0  0  0  0  0  0  0  0  0  0
  -14.4136   21.7285  -23.2003 O   0  0  0  0  0  0  0  0  0  0  0  0
  -14.5380   20.5365  -21.2978 C   0  0  0  0  0  0  0  0  0  0  0  0
  -14.7340   20.2200  -19.9901 C   0  0  0  0  0  0  0  0  0  0  0  0
  -14.9491   19.8802  -18.5780 N   0  0  0  0  0  0  0  0  0  0  0  0
  -14.3557   20.5207  -17.4957 C   0  0  0  0  0  0  0  0  0  0  0  0
  -15.8882   18.7756  -18.4502 C   0  0  0  0  0  0  0  0  0  0  0  0
  -13.0900   20.8221  -24.6283 C   0  0  0  0  0  0  0  0  0  0  0  0
  -12.3064   19.8950  -25.5200 C   0  0  0  0  0  0  0  0  0  0  0  0
  -13.6547   20.4607  -27.4371 C   0  0  0  0  0  0  0  0  0  0  0  0
  -12.2653   20.9945  -27.6870 N   0  0  0  0  0  0  0  0  0  0  0  0
  -11.4067   20.0062  -28.2645 C   0  0  0  0  0  0  0  0  0  0  0  0
  -10.3988   20.2828  -28.9689 O   0  0  0  0  0  0  0  0  0  0  0  0
  -12.6852   13.9754  -28.1777 N   0  0  0  0  0  0  0  0  0  0  0  0
  1  2  1  0
  2  3  1  0
  3  4  2  0
  4  5  1  0
  5  6  2  0
  6  7  1  0
  7  8  2  0
  8  9  1  0
  9 10  1  0
 10 11  2  0
 11 12  1  0
 12 13  2  0
 13 14  1  0
 14 15  1  0
 15 16  2  0
 16 17  1  0
 17 18  2  0
 18 19  1  0
 18 20  1  0
 20 21  1  1
 21 22  1  0
 22 23  1  0
 23 24  1  1
 24 25  2  0
 24 26  1  0
 26 27  3  0
 27 28  1  0
 28 29  1  0
 28 30  1  0
 23 31  1  0
 31 32  1  0
 20 33  1  0
 33 34  1  0
 34 35  1  0
 35 36  2  0
 14 37  2  0
  8  3  1  0
 37 10  1  0
 19 15  1  0
 32 20  1  0
 35 17  1  0
M  CHG  1  23   1
M  END
$$$$
CHEMBL5088102_diffdock_6
     RDKit          3D

 37 41  0  0  0  0  0  0  0  0999 V2000
  -16.1397    8.6882  -28.2460 C   0  0  0  0  0  0  0  0  0  0  0  0
  -15.2705    9.8195  -28.2815 O   0  0  0  0  0  0  0  0  0  0  0  0
  -15.6075   10.9471  -27.4342 C   0  0  0  0  0  0  0  0  0  0  0  0
  -16.6144   10.8625  -26.5645 C   0  0  0  0  0  0  0  0  0  0  0  0
  -16.9496   11.9921  -25.7479 C   0  0  0  0  0  0  0  0  0  0  0  0
  -16.1640   13.0986  -25.9603 C   0  0  0  0  0  0  0  0  0  0  0  0
  -15.1306   13.1726  -26.8558 C   0  0  0  0  0  0  0  0  0  0  0  0
  -14.7890   12.0915  -27.6513 C   0  0  0  0  0  0  0  0  0  0  0  0
  -13.6863   11.9813  -28.5177 N   0  0  0  0  0  0  0  0  0  0  0  0
  -12.8119   12.9318  -28.9525 C   0  0  0  0  0  0  0  0  0  0  0  0
  -11.6534   12.4373  -29.8252 N   0  0  0  0  0  0  0  0  0  0  0  0
  -10.8124   13.4314  -30.0807 C   0  0  0  0  0  0  0  0  0  0  0  0
  -10.8136   14.7414  -29.7228 C   0  0  0  0  0  0  0  0  0  0  0  0
  -11.9000   15.1645  -28.9302 C   0  0  0  0  0  0  0  0  0  0  0  0
  -12.0114   16.4692  -28.3417 C   0  0  0  0  0  0  0  0  0  0  0  0
  -11.1523   17.5489  -28.6613 C   0  0  0  0  0  0  0  0  0  0  0  0
  -11.6111   18.6664  -28.0424 C   0  0  0  0  0  0  0  0  0  0  0  0
  -12.7201   18.2842  -27.3463 C   0  0  0  0  0  0  0  0  0  0  0  0
  -12.9426   16.9512  -27.5454 N   0  0  0  0  0  0  0  0  0  0  0  0
  -13.3715   19.3198  -26.4668 C   0  0  1  0  0  0  0  0  0  0  0  0
  -14.4430   18.6427  -25.7611 C   0  0  0  0  0  0  0  0  0  0  0  0
  -14.9916   19.3574  -24.4963 C   0  0  0  0  0  0  0  0  0  0  0  0
  -13.9836   19.6574  -23.6065 N   0  0  2  0  0  4  0  0  0  0  0  0
  -14.4743   20.3779  -22.3990 C   0  0  0  0  0  0  0  0  0  0  0  0
  -14.8286   19.3963  -21.9592 O   0  0  0  0  0  0  0  0  0  0  0  0
  -14.4344   21.6055  -22.0996 C   0  0  0  0  0  0  0  0  0  0  0  0
  -14.4096   22.9271  -21.7812 C   0  0  0  0  0  0  0  0  0  0  0  0
  -14.3859   24.3537  -21.4347 N   0  0  0  0  0  0  0  0  0  0  0  0
  -13.4967   25.2924  -21.9462 C   0  0  0  0  0  0  0  0  0  0  0  0
  -15.4373   24.6702  -20.4792 C   0  0  0  0  0  0  0  0  0  0  0  0
  -13.1417   20.5736  -24.4561 C   0  0  0  0  0  0  0  0  0  0  0  0
  -12.3329   19.7351  -25.4108 C   0  0  0  0  0  0  0  0  0  0  0  0
  -13.5974   20.5214  -27.3072 C   0  0  0  0  0  0  0  0  0  0  0  0
  -12.1935   21.0583  -27.4447 N   0  0  0  0  0  0  0  0  0  0  0  0
  -11.3229   20.1245  -28.0909 C   0  0  0  0  0  0  0  0  0  0  0  0
  -10.2848   20.4596  -28.7221 O   0  0  0  0  0  0  0  0  0  0  0  0
  -12.6794   14.1440  -28.7140 N   0  0  0  0  0  0  0  0  0  0  0  0
  1  2  1  0
  2  3  1  0
  3  4  2  0
  4  5  1  0
  5  6  2  0
  6  7  1  0
  7  8  2  0
  8  9  1  0
  9 10  1  0
 10 11  2  0
 11 12  1  0
 12 13  2  0
 13 14  1  0
 14 15  1  0
 15 16  2  0
 16 17  1  0
 17 18  2  0
 18 19  1  0
 18 20  1  0
 20 21  1  1
 21 22  1  0
 22 23  1  0
 23 24  1  1
 24 25  2  0
 24 26  1  0
 26 27  3  0
 27 28  1  0
 28 29  1  0
 28 30  1  0
 23 31  1  0
 31 32  1  0
 20 33  1  0
 33 34  1  0
 34 35  1  0
 35 36  2  0
 14 37  2  0
  8  3  1  0
 37 10  1  0
 19 15  1  0
 32 20  1  0
 35 17  1  0
M  CHG  1  23   1
M  END
$$$$
CHEMBL5088102_diffdock_7
     RDKit          3D

 37 41  0  0  0  0  0  0  0  0999 V2000
  -15.5130    8.5907  -28.6901 C   0  0  0  0  0  0  0  0  0  0  0  0
  -14.7114    9.7654  -28.5715 O   0  0  0  0  0  0  0  0  0  0  0  0
  -15.2105   10.8316  -27.7246 C   0  0  0  0  0  0  0  0  0  0  0  0
  -16.3363   10.6716  -27.0286 C   0  0  0  0  0  0  0  0  0  0  0  0
  -16.8289   11.7416  -26.2116 C   0  0  0  0  0  0  0  0  0  0  0  0
  -16.0554   12.8764  -26.2361 C   0  0  0  0  0  0  0  0  0  0  0  0
  -14.8993   13.0280  -26.9541 C   0  0  0  0  0  0  0  0  0  0  0  0
  -14.4050   12.0052  -27.7465 C   0  0  0  0  0  0  0  0  0  0  0  0
  -13.1790   11.9728  -28.4355 N   0  0  0  0  0  0  0  0  0  0  0  0
  -12.3272   12.9853  -28.7617 C   0  0  0  0  0  0  0  0  0  0  0  0
  -11.0541   12.5830  -29.5137 N   0  0  0  0  0  0  0  0  0  0  0  0
  -10.2571   13.6331  -29.6646 C   0  0  0  0  0  0  0  0  0  0  0  0
  -10.3805   14.9327  -29.2902 C   0  0  0  0  0  0  0  0  0  0  0  0
  -11.5691   15.2699  -28.6112 C   0  0  0  0  0  0  0  0  0  0  0  0
  -11.8257   16.5524  -28.0193 C   0  0  0  0  0  0  0  0  0  0  0  0
  -11.0079   17.6897  -28.2285 C   0  0  0  0  0  0  0  0  0  0  0  0
  -11.6006   18.7634  -27.6467 C   0  0  0  0  0  0  0  0  0  0  0  0
  -12.7510   18.2985  -27.0802 C   0  0  0  0  0  0  0  0  0  0  0  0
  -12.8656   16.9589  -27.3215 N   0  0  0  0  0  0  0  0  0  0  0  0
  -13.5574   19.2730  -26.2612 C   0  0  1  0  0  0  0  0  0  0  0  0
  -14.6529   18.5161  -25.6854 C   0  0  0  0  0  0  0  0  0  0  0  0
  -15.3781   19.1684  -24.4770 C   0  0  0  0  0  0  0  0  0  0  0  0
  -14.4923   19.5112  -23.4793 N   0  0  2  0  0  4  0  0  0  0  0  0
  -15.1542   20.1741  -22.3216 C   0  0  0  0  0  0  0  0  0  0  0  0
  -15.7615   19.2367  -22.1341 O   0  0  0  0  0  0  0  0  0  0  0  0
  -14.9966   21.3298  -21.8339 C   0  0  0  0  0  0  0  0  0  0  0  0
  -14.8432   22.5707  -21.3000 C   0  0  0  0  0  0  0  0  0  0  0  0
  -14.6742   23.9114  -20.7257 N   0  0  0  0  0  0  0  0  0  0  0  0
  -14.0778   24.1943  -19.5018 C   0  0  0  0  0  0  0  0  0  0  0  0
  -15.2089   24.9273  -21.6205 C   0  0  0  0  0  0  0  0  0  0  0  0
  -13.6244   20.4955  -24.2195 C   0  0  0  0  0  0  0  0  0  0  0  0
  -12.6663   19.7291  -25.0933 C   0  0  0  0  0  0  0  0  0  0  0  0
  -13.7682   20.4759  -27.1036 C   0  0  0  0  0  0  0  0  0  0  0  0
  -12.3948   21.1013  -27.0808 N   0  0  0  0  0  0  0  0  0  0  0  0
  -11.4024   20.2371  -27.6426 C   0  0  0  0  0  0  0  0  0  0  0  0
  -10.3262   20.6491  -28.1530 O   0  0  0  0  0  0  0  0  0  0  0  0
  -12.2991   14.1982  -28.4933 N   0  0  0  0  0  0  0  0  0  0  0  0
  1  2  1  0
  2  3  1  0
  3  4  2  0
  4  5  1  0
  5  6  2  0
  6  7  1  0
  7  8  2  0
  8  9  1  0
  9 10  1  0
 10 11  2  0
 11 12  1  0
 12 13  2  0
 13 14  1  0
 14 15  1  0
 15 16  2  0
 16 17  1  0
 17 18  2  0
 18 19  1  0
 18 20  1  0
 20 21  1  1
 21 22  1  0
 22 23  1  0
 23 24  1  1
 24 25  2  0
 24 26  1  0
 26 27  3  0
 27 28  1  0
 28 29  1  0
 28 30  1  0
 23 31  1  0
 31 32  1  0
 20 33  1  0
 33 34  1  0
 34 35  1  0
 35 36  2  0
 14 37  2  0
  8  3  1  0
 37 10  1  0
 19 15  1  0
 32 20  1  0
 35 17  1  0
M  CHG  1  23   1
M  END
$$$$
CHEMBL5088102_diffdock_8
     RDKit          3D

 37 41  0  0  0  0  0  0  0  0999 V2000
  -16.5171    8.6736  -28.4117 C   0  0  0  0  0  0  0  0  0  0  0  0
  -15.6267    9.7864  -28.3382 O   0  0  0  0  0  0  0  0  0  0  0  0
  -15.8870   10.7834  -27.3177 C   0  0  0  0  0  0  0  0  0  0  0  0
  -16.9679   10.6916  -26.5426 C   0  0  0  0  0  0  0  0  0  0  0  0
  -17.2235   11.6956  -25.5518 C   0  0  0  0  0  0  0  0  0  0  0  0
  -16.2859   12.6983  -25.5053 C   0  0  0  0  0  0  0  0  0  0  0  0
  -15.1781   12.7805  -26.3061 C   0  0  0  0  0  0  0  0  0  0  0  0
  -14.9117   11.8191  -27.2668 C   0  0  0  0  0  0  0  0  0  0  0  0
  -13.7617   11.7069  -28.0692 N   0  0  0  0  0  0  0  0  0  0  0  0
  -12.9497   12.6741  -28.5813 C   0  0  0  0  0  0  0  0  0  0  0  0
  -11.8051   12.1916  -29.4787 N   0  0  0  0  0  0  0  0  0  0  0  0
  -11.0214   13.2091  -29.8124 C   0  0  0  0  0  0  0  0  0  0  0  0
  -11.0685   14.5328  -29.5128 C   0  0  0  0  0  0  0  0  0  0  0  0
  -12.1411   14.9434  -28.6952 C   0  0  0  0  0  0  0  0  0  0  0  0
  -12.2889   16.2676  -28.1606 C   0  0  0  0  0  0  0  0  0  0  0  0
  -11.4383   17.3484  -28.4985 C   0  0  0  0  0  0  0  0  0  0  0  0
  -11.9314   18.4810  -27.9357 C   0  0  0  0  0  0  0  0  0  0  0  0
  -13.0529   18.1071  -27.2554 C   0  0  0  0  0  0  0  0  0  0  0  0
  -13.2491   16.7641  -27.4088 N   0  0  0  0  0  0  0  0  0  0  0  0
  -13.7443   19.1646  -26.4342 C   0  0  1  0  0  0  0  0  0  0  0  0
  -14.8240   18.4971  -25.7320 C   0  0  0  0  0  0  0  0  0  0  0  0
  -15.4182   19.2503  -24.5108 C   0  0  0  0  0  0  0  0  0  0  0  0
  -14.4399   19.6007  -23.6065 N   0  0  2  0  0  4  0  0  0  0  0  0
  -14.9747   20.3584  -22.4414 C   0  0  0  0  0  0  0  0  0  0  0  0
  -14.3370   19.7338  -21.7444 O   0  0  0  0  0  0  0  0  0  0  0  0
  -15.8011   21.3138  -22.3894 C   0  0  0  0  0  0  0  0  0  0  0  0
  -16.7022   22.3299  -22.3254 C   0  0  0  0  0  0  0  0  0  0  0  0
  -17.6769   23.4256  -22.2530 N   0  0  0  0  0  0  0  0  0  0  0  0
  -17.3651   24.7800  -22.2116 C   0  0  0  0  0  0  0  0  0  0  0  0
  -19.0367   22.9066  -22.2415 C   0  0  0  0  0  0  0  0  0  0  0  0
  -13.5894   20.4977  -24.4680 C   0  0  0  0  0  0  0  0  0  0  0  0
  -12.7416   19.6371  -25.3676 C   0  0  0  0  0  0  0  0  0  0  0  0
  -13.9657   20.3293  -27.3261 C   0  0  0  0  0  0  0  0  0  0  0  0
  -12.5671   20.8839  -27.4465 N   0  0  0  0  0  0  0  0  0  0  0  0
  -11.6647   19.9408  -28.0326 C   0  0  0  0  0  0  0  0  0  0  0  0
  -10.6150   20.2688  -28.6482 O   0  0  0  0  0  0  0  0  0  0  0  0
  -12.8637   13.9006  -28.4022 N   0  0  0  0  0  0  0  0  0  0  0  0
  1  2  1  0
  2  3  1  0
  3  4  2  0
  4  5  1  0
  5  6  2  0
  6  7  1  0
  7  8  2  0
  8  9  1  0
  9 10  1  0
 10 11  2  0
 11 12  1  0
 12 13  2  0
 13 14  1  0
 14 15  1  0
 15 16  2  0
 16 17  1  0
 17 18  2  0
 18 19  1  0
 18 20  1  0
 20 21  1  1
 21 22  1  0
 22 23  1  0
 23 24  1  1
 24 25  2  0
 24 26  1  0
 26 27  3  0
 27 28  1  0
 28 29  1  0
 28 30  1  0
 23 31  1  0
 31 32  1  0
 20 33  1  0
 33 34  1  0
 34 35  1  0
 35 36  2  0
 14 37  2  0
  8  3  1  0
 37 10  1  0
 19 15  1  0
 32 20  1  0
 35 17  1  0
M  CHG  1  23   1
M  END
$$$$
CHEMBL5088102_diffdock_9
     RDKit          3D

 37 41  0  0  0  0  0  0  0  0999 V2000
  -16.5149    9.4353  -28.6069 C   0  0  0  0  0  0  0  0  0  0  0  0
  -15.5335   10.4641  -28.4839 O   0  0  0  0  0  0  0  0  0  0  0  0
  -15.7779   11.5064  -27.5057 C   0  0  0  0  0  0  0  0  0  0  0  0
  -16.8136   11.4206  -26.6704 C   0  0  0  0  0  0  0  0  0  0  0  0
  -17.0550   12.4684  -25.7224 C   0  0  0  0  0  0  0  0  0  0  0  0
  -16.1539   13.5036  -25.7792 C   0  0  0  0  0  0  0  0  0  0  0  0
  -15.0923   13.5793  -26.6409 C   0  0  0  0  0  0  0  0  0  0  0  0
  -14.8402   12.5759  -27.5618 C   0  0  0  0  0  0  0  0  0  0  0  0
  -13.7293   12.4590  -28.4170 N   0  0  0  0  0  0  0  0  0  0  0  0
  -12.8528   13.4067  -28.8536 C   0  0  0  0  0  0  0  0  0  0  0  0
  -11.7541   12.9246  -29.8069 N   0  0  0  0  0  0  0  0  0  0  0  0
  -10.9006   13.9083  -30.0610 C   0  0  0  0  0  0  0  0  0  0  0  0
  -10.8479   15.2000  -29.6448 C   0  0  0  0  0  0  0  0  0  0  0  0
  -11.8806   15.6126  -28.7783 C   0  0  0  0  0  0  0  0  0  0  0  0
  -11.9263   16.8909  -28.1266 C   0  0  0  0  0  0  0  0  0  0  0  0
  -11.0004   17.9326  -28.3789 C   0  0  0  0  0  0  0  0  0  0  0  0
  -11.4043   19.0434  -27.7114 C   0  0  0  0  0  0  0  0  0  0  0  0
  -12.5456   18.6932  -27.0517 C   0  0  0  0  0  0  0  0  0  0  0  0
  -12.8417   17.3871  -27.3208 N   0  0  0  0  0  0  0  0  0  0  0  0
  -13.1511   19.7207  -26.1307 C   0  0  1  0  0  0  0  0  0  0  0  0
  -14.2723   19.0738  -25.4757 C   0  0  0  0  0  0  0  0  0  0  0  0
  -14.8005   19.7563  -24.1847 C   0  0  0  0  0  0  0  0  0  0  0  0
  -13.7925   19.9522  -23.2663 N   0  0  2  0  0  4  0  0  0  0  0  0
  -14.2616   20.6398  -22.0314 C   0  0  0  0  0  0  0  0  0  0  0  0
  -13.2335   20.5148  -21.5732 O   0  0  0  0  0  0  0  0  0  0  0  0
  -15.3879   21.1360  -21.7424 C   0  0  0  0  0  0  0  0  0  0  0  0
  -16.5928   21.6740  -21.4147 C   0  0  0  0  0  0  0  0  0  0  0  0
  -17.8943   22.2565  -21.0645 N   0  0  0  0  0  0  0  0  0  0  0  0
  -19.0609   22.1292  -21.8104 C   0  0  0  0  0  0  0  0  0  0  0  0
  -17.8113   22.9879  -19.8089 C   0  0  0  0  0  0  0  0  0  0  0  0
  -12.8841   20.8580  -24.0564 C   0  0  0  0  0  0  0  0  0  0  0  0
  -12.1087   20.0215  -25.0402 C   0  0  0  0  0  0  0  0  0  0  0  0
  -13.2920   20.9735  -26.9129 C   0  0  0  0  0  0  0  0  0  0  0  0
  -11.8571   21.4329  -27.0027 N   0  0  0  0  0  0  0  0  0  0  0  0
  -11.0311   20.4826  -27.6823 C   0  0  0  0  0  0  0  0  0  0  0  0
   -9.9644   20.7867  -28.2806 O   0  0  0  0  0  0  0  0  0  0  0  0
  -12.6753   14.6029  -28.5680 N   0  0  0  0  0  0  0  0  0  0  0  0
  1  2  1  0
  2  3  1  0
  3  4  2  0
  4  5  1  0
  5  6  2  0
  6  7  1  0
  7  8  2  0
  8  9  1  0
  9 10  1  0
 10 11  2  0
 11 12  1  0
 12 13  2  0
 13 14  1  0
 14 15  1  0
 15 16  2  0
 16 17  1  0
 17 18  2  0
 18 19  1  0
 18 20  1  0
 20 21  1  1
 21 22  1  0
 22 23  1  0
 23 24  1  1
 24 25  2  0
 24 26  1  0
 26 27  3  0
 27 28  1  0
 28 29  1  0
 28 30  1  0
 23 31  1  0
 31 32  1  0
 20 33  1  0
 33 34  1  0
 34 35  1  0
 35 36  2  0
 14 37  2  0
  8  3  1  0
 37 10  1  0
 19 15  1  0
 32 20  1  0
 35 17  1  0
M  CHG  1  23   1
M  END
$$$$
CHEMBL5088102_diffdock_10
     RDKit          3D

 37 41  0  0  0  0  0  0  0  0999 V2000
  -14.7444    8.6424  -27.8194 C   0  0  0  0  0  0  0  0  0  0  0  0
  -14.0656    9.8971  -27.7790 O   0  0  0  0  0  0  0  0  0  0  0  0
  -14.5647   10.8968  -26.8546 C   0  0  0  0  0  0  0  0  0  0  0  0
  -15.6474   10.6538  -26.1156 C   0  0  0  0  0  0  0  0  0  0  0  0
  -16.1417   11.6591  -25.2211 C   0  0  0  0  0  0  0  0  0  0  0  0
  -15.4165   12.8257  -25.2223 C   0  0  0  0  0  0  0  0  0  0  0  0
  -14.3041   13.0626  -25.9850 C   0  0  0  0  0  0  0  0  0  0  0  0
  -13.8090   12.1031  -26.8527 C   0  0  0  0  0  0  0  0  0  0  0  0
  -12.6181   12.1579  -27.5995 N   0  0  0  0  0  0  0  0  0  0  0  0
  -11.9103   13.2329  -28.0473 C   0  0  0  0  0  0  0  0  0  0  0  0
  -10.6633   12.9221  -28.8821 N   0  0  0  0  0  0  0  0  0  0  0  0
  -10.0003   14.0392  -29.1528 C   0  0  0  0  0  0  0  0  0  0  0  0
  -10.2356   15.3387  -28.8362 C   0  0  0  0  0  0  0  0  0  0  0  0
  -11.3973   15.5893  -28.0778 C   0  0  0  0  0  0  0  0  0  0  0  0
  -11.7457   16.8709  -27.5327 C   0  0  0  0  0  0  0  0  0  0  0  0
  -11.0236   18.0593  -27.8015 C   0  0  0  0  0  0  0  0  0  0  0  0
  -11.6907   19.1061  -27.2521 C   0  0  0  0  0  0  0  0  0  0  0  0
  -12.7922   18.5760  -26.6470 C   0  0  0  0  0  0  0  0  0  0  0  0
  -12.8041   17.2228  -26.8329 N   0  0  0  0  0  0  0  0  0  0  0  0
  -13.6610   19.5169  -25.8529 C   0  0  1  0  0  0  0  0  0  0  0  0
  -14.6845   18.7006  -25.2280 C   0  0  0  0  0  0  0  0  0  0  0  0
  -15.4410   19.3430  -24.0335 C   0  0  0  0  0  0  0  0  0  0  0  0
  -14.5704   19.7947  -23.0662 N   0  0  2  0  0  4  0  0  0  0  0  0
  -15.2654   20.4505  -21.9240 C   0  0  0  0  0  0  0  0  0  0  0  0
  -14.9233   19.6162  -21.2389 O   0  0  0  0  0  0  0  0  0  0  0  0
  -15.9289   21.5254  -21.8712 C   0  0  0  0  0  0  0  0  0  0  0  0
  -16.6462   22.6779  -21.7964 C   0  0  0  0  0  0  0  0  0  0  0  0
  -17.4233   23.9209  -21.7129 N   0  0  0  0  0  0  0  0  0  0  0  0
  -16.9191   25.2013  -21.9125 C   0  0  0  0  0  0  0  0  0  0  0  0
  -18.8166   23.6384  -21.4007 C   0  0  0  0  0  0  0  0  0  0  0  0
  -13.7941   20.8130  -23.8604 C   0  0  0  0  0  0  0  0  0  0  0  0
  -12.7915   20.0890  -24.7202 C   0  0  0  0  0  0  0  0  0  0  0  0
  -13.9787   20.6642  -26.7384 C   0  0  0  0  0  0  0  0  0  0  0  0
  -12.6588   21.3958  -26.7651 N   0  0  0  0  0  0  0  0  0  0  0  0
  -11.6096   20.5898  -27.3100 C   0  0  0  0  0  0  0  0  0  0  0  0
  -10.5770   21.0637  -27.8556 O   0  0  0  0  0  0  0  0  0  0  0  0
  -11.9942   14.4559  -27.8445 N   0  0  0  0  0  0  0  0  0  0  0  0
  1  2  1  0
  2  3  1  0
  3  4  2  0
  4  5  1  0
  5  6  2  0
  6  7  1  0
  7  8  2  0
  8  9  1  0
  9 10  1  0
 10 11  2  0
 11 12  1  0
 12 13  2  0
 13 14  1  0
 14 15  1  0
 15 16  2  0
 16 17  1  0
 17 18  2  0
 18 19  1  0
 18 20  1  0
 20 21  1  1
 21 22  1  0
 22 23  1  0
 23 24  1  1
 24 25  2  0
 24 26  1  0
 26 27  3  0
 27 28  1  0
 28 29  1  0
 28 30  1  0
 23 31  1  0
 31 32  1  0
 20 33  1  0
 33 34  1  0
 34 35  1  0
 35 36  2  0
 14 37  2  0
  8  3  1  0
 37 10  1  0
 19 15  1  0
 32 20  1  0
 35 17  1  0
M  CHG  1  23   1
M  END
$$$$
CHEMBL3623286_diffdock_1
     RDKit          3D

 32 36  0  0  0  0  0  0  0  0999 V2000
  -15.4725   11.0620  -26.8993 C   0  0  0  0  0  0  0  0  0  0  0  0
  -15.4073   12.4436  -26.6228 O   0  0  0  0  0  0  0  0  0  0  0  0
  -14.4540   13.2098  -27.2791 C   0  0  0  0  0  0  0  0  0  0  0  0
  -13.5486   12.6634  -28.1627 C   0  0  0  0  0  0  0  0  0  0  0  0
  -12.5886   13.4071  -28.8317 C   0  0  0  0  0  0  0  0  0  0  0  0
  -11.7170   12.8649  -29.7010 N   0  0  0  0  0  0  0  0  0  0  0  0
  -10.8085   13.5890  -30.3457 C   0  0  0  0  0  0  0  0  0  0  0  0
  -10.7614   14.9162  -30.1165 N   0  0  0  0  0  0  0  0  0  0  0  0
  -11.6070   15.5123  -29.2573 C   0  0  0  0  0  0  0  0  0  0  0  0
  -11.5518   16.9006  -29.0303 N   0  0  0  0  0  0  0  0  0  0  0  0
  -10.6622   17.6948  -29.7959 C   0  0  0  0  0  0  0  0  0  0  0  0
   -9.7416   18.5353  -29.1712 C   0  0  0  0  0  0  0  0  0  0  0  0
   -8.8780   19.3038  -29.9179 C   0  0  0  0  0  0  0  0  0  0  0  0
   -8.9301   19.2374  -31.2774 C   0  0  0  0  0  0  0  0  0  0  0  0
   -9.8324   18.4138  -31.9412 C   0  0  0  0  0  0  0  0  0  0  0  0
   -9.9135   18.3159  -33.6743 Cl  0  0  0  0  0  0  0  0  0  0  0  0
  -10.6972   17.6434  -31.1700 C   0  0  0  0  0  0  0  0  0  0  0  0
  -11.5915   16.8265  -31.8115 F   0  0  0  0  0  0  0  0  0  0  0  0
  -12.5534   14.7651  -28.5856 C   0  0  0  0  0  0  0  0  0  0  0  0
  -13.4646   15.3408  -27.6902 C   0  0  0  0  0  0  0  0  0  0  0  0
  -14.3974   14.5858  -27.0483 C   0  0  0  0  0  0  0  0  0  0  0  0
  -15.3183   15.0844  -26.1651 O   0  0  0  0  0  0  0  0  0  0  0  0
  -15.1339   15.2740  -24.8105 C   0  0  0  0  0  0  0  0  0  0  0  0
  -14.0265   14.8573  -24.3282 O   0  0  0  0  0  0  0  0  0  0  0  0
  -16.0998   15.8902  -23.9817 N   0  0  0  0  0  0  0  0  0  0  0  0
  -17.3746   16.4197  -24.4125 C   0  0  0  0  0  0  0  0  0  0  0  0
  -17.9065   17.0741  -23.1667 C   0  0  2  0  0  0  0  0  0  0  0  0
  -16.5875   17.5350  -22.5141 C   0  0  0  0  0  0  0  0  0  0  0  0
  -15.9685   16.1184  -22.5637 C   0  0  1  0  0  0  0  0  0  0  0  0
  -17.0352   15.3654  -21.8467 C   0  0  0  0  0  0  0  0  0  0  0  0
  -18.2795   16.0169  -22.2503 N   0  0  1  0  0  4  0  0  0  0  0  0
  -19.0208   16.4954  -21.1032 C   0  0  0  0  0  0  0  0  0  0  0  0
  1  2  1  0
  2  3  1  0
  3  4  2  0
  4  5  1  0
  5  6  2  0
  6  7  1  0
  7  8  2  0
  8  9  1  0
  9 10  1  0
 10 11  1  0
 11 12  2  0
 12 13  1  0
 13 14  2  0
 14 15  1  0
 15 16  1  0
 15 17  2  0
 17 18  1  0
  9 19  2  0
 19 20  1  0
 20 21  2  0
 21 22  1  0
 22 23  1  0
 23 24  2  0
 23 25  1  0
 25 26  1  0
 27 26  1  6
 27 28  1  0
 28 29  1  0
 29 30  1  1
 30 31  1  0
 31 32  1  1
 21  3  1  0
 29 25  1  0
 19  5  1  0
 31 27  1  0
 17 11  1  0
M  CHG  1  31   1
M  END
$$$$
CHEMBL3623286_diffdock_2
     RDKit          3D

 32 36  0  0  0  0  0  0  0  0999 V2000
  -15.3094   10.9968  -27.0732 C   0  0  0  0  0  0  0  0  0  0  0  0
  -15.1817   12.3605  -26.7360 O   0  0  0  0  0  0  0  0  0  0  0  0
  -14.1826   13.1065  -27.3458 C   0  0  0  0  0  0  0  0  0  0  0  0
  -13.2358   12.5379  -28.1700 C   0  0  0  0  0  0  0  0  0  0  0  0
  -12.2295   13.2612  -28.7916 C   0  0  0  0  0  0  0  0  0  0  0  0
  -11.3172   12.6974  -29.6036 N   0  0  0  0  0  0  0  0  0  0  0  0
  -10.3640   13.4019  -30.2038 C   0  0  0  0  0  0  0  0  0  0  0  0
  -10.3122   14.7312  -29.9874 N   0  0  0  0  0  0  0  0  0  0  0  0
  -11.1972   15.3484  -29.1847 C   0  0  0  0  0  0  0  0  0  0  0  0
  -11.1364   16.7386  -28.9708 N   0  0  0  0  0  0  0  0  0  0  0  0
  -10.1970   17.5126  -29.6965 C   0  0  0  0  0  0  0  0  0  0  0  0
   -9.3004   18.3492  -29.0328 C   0  0  0  0  0  0  0  0  0  0  0  0
   -8.3883   19.0980  -29.7407 C   0  0  0  0  0  0  0  0  0  0  0  0
   -8.3684   19.0160  -31.1003 C   0  0  0  0  0  0  0  0  0  0  0  0
   -9.2444   18.1955  -31.8021 C   0  0  0  0  0  0  0  0  0  0  0  0
   -9.2339   18.0778  -33.5359 Cl  0  0  0  0  0  0  0  0  0  0  0  0
  -10.1590   17.4450  -31.0698 C   0  0  0  0  0  0  0  0  0  0  0  0
  -11.0281   16.6315  -31.7491 F   0  0  0  0  0  0  0  0  0  0  0  0
  -12.1902   14.6215  -28.5595 C   0  0  0  0  0  0  0  0  0  0  0  0
  -13.1430   15.2196  -27.7241 C   0  0  0  0  0  0  0  0  0  0  0  0
  -14.1207   14.4843  -27.1279 C   0  0  0  0  0  0  0  0  0  0  0  0
  -15.0837   15.0054  -26.3043 O   0  0  0  0  0  0  0  0  0  0  0  0
  -14.8888   15.5097  -25.0344 C   0  0  0  0  0  0  0  0  0  0  0  0
  -13.6808   15.5427  -24.6197 O   0  0  0  0  0  0  0  0  0  0  0  0
  -15.9486   15.9689  -24.2184 N   0  0  0  0  0  0  0  0  0  0  0  0
  -17.3598   15.8059  -24.4882 C   0  0  0  0  0  0  0  0  0  0  0  0
  -18.0077   16.6021  -23.3885 C   0  0  2  0  0  0  0  0  0  0  0  0
  -16.9551   17.7125  -23.1966 C   0  0  0  0  0  0  0  0  0  0  0  0
  -15.8032   16.7021  -22.9851 C   0  0  1  0  0  0  0  0  0  0  0  0
  -16.3861   15.9041  -21.8705 C   0  0  0  0  0  0  0  0  0  0  0  0
  -17.8190   15.8668  -22.1555 N   0  0  1  0  0  4  0  0  0  0  0  0
  -18.5903   16.3998  -21.0530 C   0  0  0  0  0  0  0  0  0  0  0  0
  1  2  1  0
  2  3  1  0
  3  4  2  0
  4  5  1  0
  5  6  2  0
  6  7  1  0
  7  8  2  0
  8  9  1  0
  9 10  1  0
 10 11  1  0
 11 12  2  0
 12 13  1  0
 13 14  2  0
 14 15  1  0
 15 16  1  0
 15 17  2  0
 17 18  1  0
  9 19  2  0
 19 20  1  0
 20 21  2  0
 21 22  1  0
 22 23  1  0
 23 24  2  0
 23 25  1  0
 25 26  1  0
 27 26  1  6
 27 28  1  0
 28 29  1  0
 29 30  1  1
 30 31  1  0
 31 32  1  1
 21  3  1  0
 29 25  1  0
 19  5  1  0
 31 27  1  0
 17 11  1  0
M  CHG  1  31   1
M  END
$$$$
CHEMBL3623286_diffdock_3
     RDKit          3D

 32 36  0  0  0  0  0  0  0  0999 V2000
  -15.1664   10.9872  -26.3881 C   0  0  0  0  0  0  0  0  0  0  0  0
  -14.8498   12.2548  -25.8568 O   0  0  0  0  0  0  0  0  0  0  0  0
  -13.9657   13.0670  -26.5535 C   0  0  0  0  0  0  0  0  0  0  0  0
  -13.2352   12.6103  -27.6291 C   0  0  0  0  0  0  0  0  0  0  0  0
  -12.3476   13.4016  -28.3420 C   0  0  0  0  0  0  0  0  0  0  0  0
  -11.6481   12.9484  -29.3978 N   0  0  0  0  0  0  0  0  0  0  0  0
  -10.8087   13.7188  -30.0814 C   0  0  0  0  0  0  0  0  0  0  0  0
  -10.6546   15.0017  -29.6985 N   0  0  0  0  0  0  0  0  0  0  0  0
  -11.3270   15.5088  -28.6500 C   0  0  0  0  0  0  0  0  0  0  0  0
  -11.1619   16.8522  -28.2630 N   0  0  0  0  0  0  0  0  0  0  0  0
  -10.2161   17.6596  -28.9424 C   0  0  0  0  0  0  0  0  0  0  0  0
   -9.2140   18.3267  -28.2387 C   0  0  0  0  0  0  0  0  0  0  0  0
   -8.2961   19.1085  -28.9021 C   0  0  0  0  0  0  0  0  0  0  0  0
   -8.3746   19.2268  -30.2569 C   0  0  0  0  0  0  0  0  0  0  0  0
   -9.3575   18.5798  -30.9976 C   0  0  0  0  0  0  0  0  0  0  0  0
   -9.4733   18.7187  -32.7259 Cl  0  0  0  0  0  0  0  0  0  0  0  0
  -10.2763   17.7930  -30.3101 C   0  0  0  0  0  0  0  0  0  0  0  0
  -11.2502   17.1491  -31.0281 F   0  0  0  0  0  0  0  0  0  0  0  0
  -12.2010   14.7132  -27.9369 C   0  0  0  0  0  0  0  0  0  0  0  0
  -12.9338   15.1975  -26.8452 C   0  0  0  0  0  0  0  0  0  0  0  0
  -13.7993   14.3977  -26.1645 C   0  0  0  0  0  0  0  0  0  0  0  0
  -14.5478   14.8076  -25.0927 O   0  0  0  0  0  0  0  0  0  0  0  0
  -15.4351   15.8645  -25.0707 C   0  0  0  0  0  0  0  0  0  0  0  0
  -15.5811   16.5015  -26.1686 O   0  0  0  0  0  0  0  0  0  0  0  0
  -16.1530   16.2418  -23.9123 N   0  0  0  0  0  0  0  0  0  0  0  0
  -16.0668   15.6073  -22.6158 C   0  0  0  0  0  0  0  0  0  0  0  0
  -17.1351   16.3109  -21.8241 C   0  0  2  0  0  0  0  0  0  0  0  0
  -18.1592   16.5990  -22.9403 C   0  0  0  0  0  0  0  0  0  0  0  0
  -17.1155   17.3128  -23.8312 C   0  0  1  0  0  0  0  0  0  0  0  0
  -16.6302   18.3336  -22.8610 C   0  0  0  0  0  0  0  0  0  0  0  0
  -16.6651   17.6560  -21.5666 N   0  0  1  0  0  4  0  0  0  0  0  0
  -17.4893   18.3733  -20.6176 C   0  0  0  0  0  0  0  0  0  0  0  0
  1  2  1  0
  2  3  1  0
  3  4  2  0
  4  5  1  0
  5  6  2  0
  6  7  1  0
  7  8  2  0
  8  9  1  0
  9 10  1  0
 10 11  1  0
 11 12  2  0
 12 13  1  0
 13 14  2  0
 14 15  1  0
 15 16  1  0
 15 17  2  0
 17 18  1  0
  9 19  2  0
 19 20  1  0
 20 21  2  0
 21 22  1  0
 22 23  1  0
 23 24  2  0
 23 25  1  0
 25 26  1  0
 27 26  1  6
 27 28  1  0
 28 29  1  0
 29 30  1  1
 30 31  1  0
 31 32  1  1
 21  3  1  0
 29 25  1  0
 19  5  1  0
 31 27  1  0
 17 11  1  0
M  CHG  1  31   1
M  END
$$$$
CHEMBL3623286_diffdock_4
     RDKit          3D

 32 36  0  0  0  0  0  0  0  0999 V2000
  -15.3623   10.6478  -27.1238 C   0  0  0  0  0  0  0  0  0  0  0  0
  -15.4308   12.0175  -26.7941 O   0  0  0  0  0  0  0  0  0  0  0  0
  -14.4410   12.8670  -27.2688 C   0  0  0  0  0  0  0  0  0  0  0  0
  -13.3765   12.4140  -28.0178 C   0  0  0  0  0  0  0  0  0  0  0  0
  -12.3766   13.2420  -28.5046 C   0  0  0  0  0  0  0  0  0  0  0  0
  -11.3480   12.7906  -29.2446 N   0  0  0  0  0  0  0  0  0  0  0  0
  -10.4014   13.5948  -29.7161 C   0  0  0  0  0  0  0  0  0  0  0  0
  -10.4780   14.9116  -29.4395 N   0  0  0  0  0  0  0  0  0  0  0  0
  -11.4829   15.4188  -28.7037 C   0  0  0  0  0  0  0  0  0  0  0  0
  -11.5553   16.7970  -28.4261 N   0  0  0  0  0  0  0  0  0  0  0  0
  -10.5498   17.6604  -28.9279 C   0  0  0  0  0  0  0  0  0  0  0  0
   -9.7985   18.4557  -28.0635 C   0  0  0  0  0  0  0  0  0  0  0  0
   -8.8217   19.2916  -28.5543 C   0  0  0  0  0  0  0  0  0  0  0  0
   -8.5938   19.3369  -29.8965 C   0  0  0  0  0  0  0  0  0  0  0  0
   -9.3198   18.5618  -30.7940 C   0  0  0  0  0  0  0  0  0  0  0  0
   -9.0434   18.6061  -32.5091 Cl  0  0  0  0  0  0  0  0  0  0  0  0
  -10.3027   17.7219  -30.2797 C   0  0  0  0  0  0  0  0  0  0  0  0
  -11.0254   16.9518  -31.1532 F   0  0  0  0  0  0  0  0  0  0  0  0
  -12.4696   14.5880  -28.2122 C   0  0  0  0  0  0  0  0  0  0  0  0
  -13.5435   15.0693  -27.4515 C   0  0  0  0  0  0  0  0  0  0  0  0
  -14.5116   14.2329  -26.9876 C   0  0  0  0  0  0  0  0  0  0  0  0
  -15.5882   14.6373  -26.2429 O   0  0  0  0  0  0  0  0  0  0  0  0
  -15.6218   14.7959  -24.8724 C   0  0  0  0  0  0  0  0  0  0  0  0
  -14.5853   14.4080  -24.2339 O   0  0  0  0  0  0  0  0  0  0  0  0
  -16.7284   15.3518  -24.1895 N   0  0  0  0  0  0  0  0  0  0  0  0
  -17.9290   15.8747  -24.8027 C   0  0  0  0  0  0  0  0  0  0  0  0
  -18.6775   16.4579  -23.6354 C   0  0  2  0  0  0  0  0  0  0  0  0
  -17.4980   16.9145  -22.7533 C   0  0  0  0  0  0  0  0  0  0  0  0
  -16.8394   15.5150  -22.7609 C   0  0  1  0  0  0  0  0  0  0  0  0
  -17.9880   14.7068  -22.2645 C   0  0  0  0  0  0  0  0  0  0  0  0
  -19.1666   15.3508  -22.8405 N   0  0  1  0  0  4  0  0  0  0  0  0
  -20.1003   15.7588  -21.8129 C   0  0  0  0  0  0  0  0  0  0  0  0
  1  2  1  0
  2  3  1  0
  3  4  2  0
  4  5  1  0
  5  6  2  0
  6  7  1  0
  7  8  2  0
  8  9  1  0
  9 10  1  0
 10 11  1  0
 11 12  2  0
 12 13  1  0
 13 14  2  0
 14 15  1  0
 15 16  1  0
 15 17  2  0
 17 18  1  0
  9 19  2  0
 19 20  1  0
 20 21  2  0
 21 22  1  0
 22 23  1  0
 23 24  2  0
 23 25  1  0
 25 26  1  0
 27 26  1  6
 27 28  1  0
 28 29  1  0
 29 30  1  6
 30 31  1  0
 31 32  1  1
 21  3  1  0
 29 25  1  0
 19  5  1  0
 31 27  1  0
 17 11  1  0
M  CHG  1  31   1
M  END
$$$$
CHEMBL3623286_diffdock_5
     RDKit          3D

 32 36  0  0  0  0  0  0  0  0999 V2000
  -15.7149   11.8924  -26.8222 C   0  0  0  0  0  0  0  0  0  0  0  0
  -15.5351   13.2574  -26.5155 O   0  0  0  0  0  0  0  0  0  0  0  0
  -14.4884   13.9426  -27.1167 C   0  0  0  0  0  0  0  0  0  0  0  0
  -13.6316   13.3421  -28.0135 C   0  0  0  0  0  0  0  0  0  0  0  0
  -12.5804   14.0049  -28.6283 C   0  0  0  0  0  0  0  0  0  0  0  0
  -11.7570   13.4116  -29.5112 N   0  0  0  0  0  0  0  0  0  0  0  0
  -10.7598   14.0595  -30.1035 C   0  0  0  0  0  0  0  0  0  0  0  0
  -10.5689   15.3598  -29.8051 N   0  0  0  0  0  0  0  0  0  0  0  0
  -11.3602   16.0042  -28.9291 C   0  0  0  0  0  0  0  0  0  0  0  0
  -11.1544   17.3643  -28.6296 N   0  0  0  0  0  0  0  0  0  0  0  0
  -10.1802   18.0954  -29.3538 C   0  0  0  0  0  0  0  0  0  0  0  0
  -10.4511   19.3855  -29.8082 C   0  0  0  0  0  0  0  0  0  0  0  0
   -9.5019   20.0931  -30.5097 C   0  0  0  0  0  0  0  0  0  0  0  0
   -8.2910   19.5212  -30.7584 C   0  0  0  0  0  0  0  0  0  0  0  0
   -7.9790   18.2376  -30.3245 C   0  0  0  0  0  0  0  0  0  0  0  0
   -6.4400   17.4916  -30.6323 Cl  0  0  0  0  0  0  0  0  0  0  0  0
   -8.9506   17.5374  -29.6161 C   0  0  0  0  0  0  0  0  0  0  0  0
   -8.6560   16.2712  -29.1820 F   0  0  0  0  0  0  0  0  0  0  0  0
  -12.3983   15.3362  -28.3116 C   0  0  0  0  0  0  0  0  0  0  0  0
  -13.2578   15.9660  -27.4015 C   0  0  0  0  0  0  0  0  0  0  0  0
  -14.2826   15.2902  -26.8140 C   0  0  0  0  0  0  0  0  0  0  0  0
  -15.1602   15.8451  -25.9202 O   0  0  0  0  0  0  0  0  0  0  0  0
  -14.9740   15.9655  -24.5580 C   0  0  0  0  0  0  0  0  0  0  0  0
  -14.0497   15.2451  -24.0490 O   0  0  0  0  0  0  0  0  0  0  0  0
  -15.7492   16.8285  -23.7492 N   0  0  0  0  0  0  0  0  0  0  0  0
  -16.7336   17.7771  -24.2204 C   0  0  0  0  0  0  0  0  0  0  0  0
  -17.1247   18.5090  -22.9657 C   0  0  2  0  0  0  0  0  0  0  0  0
  -15.7896   18.4656  -22.1951 C   0  0  0  0  0  0  0  0  0  0  0  0
  -15.6736   16.9277  -22.3124 C   0  0  1  0  0  0  0  0  0  0  0  0
  -16.9877   16.5428  -21.7261 C   0  0  0  0  0  0  0  0  0  0  0  0
  -17.9054   17.5945  -22.1590 N   0  0  1  0  0  4  0  0  0  0  0  0
  -18.5430   18.2364  -21.0295 C   0  0  0  0  0  0  0  0  0  0  0  0
  1  2  1  0
  2  3  1  0
  3  4  2  0
  4  5  1  0
  5  6  2  0
  6  7  1  0
  7  8  2  0
  8  9  1  0
  9 10  1  0
 10 11  1  0
 11 12  2  0
 12 13  1  0
 13 14  2  0
 14 15  1  0
 15 16  1  0
 15 17  2  0
 17 18  1  0
  9 19  2  0
 19 20  1  0
 20 21  2  0
 21 22  1  0
 22 23  1  0
 23 24  2  0
 23 25  1  0
 25 26  1  0
 27 26  1  6
 27 28  1  0
 28 29  1  0
 29 30  1  1
 30 31  1  0
 31 32  1  1
 21  3  1  0
 29 25  1  0
 19  5  1  0
 31 27  1  0
 17 11  1  0
M  CHG  1  31   1
M  END
$$$$
CHEMBL3623286_diffdock_6
     RDKit          3D

 32 36  0  0  0  0  0  0  0  0999 V2000
  -15.5700   10.9323  -27.2044 C   0  0  0  0  0  0  0  0  0  0  0  0
  -15.2835   12.2295  -26.7305 O   0  0  0  0  0  0  0  0  0  0  0  0
  -14.3519   12.9978  -27.4150 C   0  0  0  0  0  0  0  0  0  0  0  0
  -13.6366   12.5090  -28.4867 C   0  0  0  0  0  0  0  0  0  0  0  0
  -12.7024   13.2564  -29.1874 C   0  0  0  0  0  0  0  0  0  0  0  0
  -12.0181   12.7726  -30.2396 N   0  0  0  0  0  0  0  0  0  0  0  0
  -11.1335   13.5015  -30.9114 C   0  0  0  0  0  0  0  0  0  0  0  0
  -10.9160   14.7727  -30.5202 N   0  0  0  0  0  0  0  0  0  0  0  0
  -11.5703   15.3088  -29.4747 C   0  0  0  0  0  0  0  0  0  0  0  0
  -11.3388   16.6398  -29.0788 N   0  0  0  0  0  0  0  0  0  0  0  0
  -10.2906   17.3734  -29.6882 C   0  0  0  0  0  0  0  0  0  0  0  0
   -9.1333   16.7306  -30.1260 C   0  0  0  0  0  0  0  0  0  0  0  0
   -8.1182   17.4460  -30.7190 C   0  0  0  0  0  0  0  0  0  0  0  0
   -8.2528   18.7925  -30.8751 C   0  0  0  0  0  0  0  0  0  0  0  0
   -9.3891   19.4736  -30.4527 C   0  0  0  0  0  0  0  0  0  0  0  0
   -9.5786   21.1904  -30.6433 Cl  0  0  0  0  0  0  0  0  0  0  0  0
  -10.4054   18.7338  -29.8561 C   0  0  0  0  0  0  0  0  0  0  0  0
  -11.5314   19.3926  -29.4356 F   0  0  0  0  0  0  0  0  0  0  0  0
  -12.4912   14.5565  -28.7738 C   0  0  0  0  0  0  0  0  0  0  0  0
  -13.2074   15.0729  -27.6858 C   0  0  0  0  0  0  0  0  0  0  0  0
  -14.1196   14.3160  -27.0172 C   0  0  0  0  0  0  0  0  0  0  0  0
  -14.8553   14.7591  -25.9497 O   0  0  0  0  0  0  0  0  0  0  0  0
  -15.8541   15.7110  -25.9830 C   0  0  0  0  0  0  0  0  0  0  0  0
  -15.9440   16.3970  -27.0571 O   0  0  0  0  0  0  0  0  0  0  0  0
  -16.7394   15.9349  -24.9032 N   0  0  0  0  0  0  0  0  0  0  0  0
  -16.8309   15.1366  -23.7010 C   0  0  0  0  0  0  0  0  0  0  0  0
  -18.0154   15.7321  -22.9900 C   0  0  2  0  0  0  0  0  0  0  0  0
  -18.8716   16.1644  -24.1975 C   0  0  0  0  0  0  0  0  0  0  0  0
  -17.7226   16.9871  -24.8263 C   0  0  1  0  0  0  0  0  0  0  0  0
  -17.4019   17.8722  -23.6718 C   0  0  0  0  0  0  0  0  0  0  0  0
  -17.6122   17.0317  -22.4950 N   0  0  1  0  0  4  0  0  0  0  0  0
  -18.5783   17.6200  -21.5923 C   0  0  0  0  0  0  0  0  0  0  0  0
  1  2  1  0
  2  3  1  0
  3  4  2  0
  4  5  1  0
  5  6  2  0
  6  7  1  0
  7  8  2  0
  8  9  1  0
  9 10  1  0
 10 11  1  0
 11 12  2  0
 12 13  1  0
 13 14  2  0
 14 15  1  0
 15 16  1  0
 15 17  2  0
 17 18  1  0
  9 19  2  0
 19 20  1  0
 20 21  2  0
 21 22  1  0
 22 23  1  0
 23 24  2  0
 23 25  1  0
 25 26  1  0
 27 26  1  6
 27 28  1  0
 28 29  1  0
 29 30  1  1
 30 31  1  0
 31 32  1  1
 21  3  1  0
 29 25  1  0
 19  5  1  0
 31 27  1  0
 17 11  1  0
M  CHG  1  31   1
M  END
$$$$
CHEMBL3623286_diffdock_7
     RDKit          3D

 32 36  0  0  0  0  0  0  0  0999 V2000
  -15.2890   11.3142  -27.0480 C   0  0  0  0  0  0  0  0  0  0  0  0
  -15.2738   12.6937  -26.7540 O   0  0  0  0  0  0  0  0  0  0  0  0
  -14.1939   13.4537  -27.1813 C   0  0  0  0  0  0  0  0  0  0  0  0
  -13.1453   12.9118  -27.8926 C   0  0  0  0  0  0  0  0  0  0  0  0
  -12.0568   13.6496  -28.3318 C   0  0  0  0  0  0  0  0  0  0  0  0
  -11.0441   13.1123  -29.0355 N   0  0  0  0  0  0  0  0  0  0  0  0
  -10.0113   13.8311  -29.4618 C   0  0  0  0  0  0  0  0  0  0  0  0
   -9.9806   15.1477  -29.1755 N   0  0  0  0  0  0  0  0  0  0  0  0
  -10.9646   15.7385  -28.4745 C   0  0  0  0  0  0  0  0  0  0  0  0
  -10.9242   17.1159  -28.1863 N   0  0  0  0  0  0  0  0  0  0  0  0
   -9.9589   17.9316  -28.8273 C   0  0  0  0  0  0  0  0  0  0  0  0
  -10.2995   19.1976  -29.3022 C   0  0  0  0  0  0  0  0  0  0  0  0
   -9.3589   19.9877  -29.9225 C   0  0  0  0  0  0  0  0  0  0  0  0
   -8.0876   19.5216  -30.0704 C   0  0  0  0  0  0  0  0  0  0  0  0
   -7.7051   18.2656  -29.6126 C   0  0  0  0  0  0  0  0  0  0  0  0
   -6.0885   17.6541  -29.7922 Cl  0  0  0  0  0  0  0  0  0  0  0  0
   -8.6691   17.4811  -28.9871 C   0  0  0  0  0  0  0  0  0  0  0  0
   -8.3054   16.2410  -28.5305 F   0  0  0  0  0  0  0  0  0  0  0  0
  -12.0404   14.9967  -28.0301 C   0  0  0  0  0  0  0  0  0  0  0  0
  -13.0962   15.5677  -27.3072 C   0  0  0  0  0  0  0  0  0  0  0  0
  -14.1531   14.8187  -26.8896 C   0  0  0  0  0  0  0  0  0  0  0  0
  -15.2178   15.3134  -26.1836 O   0  0  0  0  0  0  0  0  0  0  0  0
  -15.1924   15.7814  -24.8855 C   0  0  0  0  0  0  0  0  0  0  0  0
  -14.0495   15.7998  -24.3147 O   0  0  0  0  0  0  0  0  0  0  0  0
  -16.3509   16.2201  -24.2033 N   0  0  0  0  0  0  0  0  0  0  0  0
  -17.6680   16.3748  -24.7797 C   0  0  0  0  0  0  0  0  0  0  0  0
  -18.4554   16.9981  -23.6597 C   0  0  2  0  0  0  0  0  0  0  0  0
  -17.3510   17.8313  -22.9783 C   0  0  0  0  0  0  0  0  0  0  0  0
  -16.4124   16.6126  -22.8169 C   0  0  1  0  0  0  0  0  0  0  0  0
  -17.3334   15.6952  -22.0897 C   0  0  0  0  0  0  0  0  0  0  0  0
  -18.6526   15.9776  -22.6516 N   0  0  1  0  0  4  0  0  0  0  0  0
  -19.5914   16.3702  -21.6226 C   0  0  0  0  0  0  0  0  0  0  0  0
  1  2  1  0
  2  3  1  0
  3  4  2  0
  4  5  1  0
  5  6  2  0
  6  7  1  0
  7  8  2  0
  8  9  1  0
  9 10  1  0
 10 11  1  0
 11 12  2  0
 12 13  1  0
 13 14  2  0
 14 15  1  0
 15 16  1  0
 15 17  2  0
 17 18  1  0
  9 19  2  0
 19 20  1  0
 20 21  2  0
 21 22  1  0
 22 23  1  0
 23 24  2  0
 23 25  1  0
 25 26  1  0
 27 26  1  6
 27 28  1  0
 28 29  1  0
 29 30  1  1
 30 31  1  0
 31 32  1  1
 21  3  1  0
 29 25  1  0
 19  5  1  0
 31 27  1  0
 17 11  1  0
M  CHG  1  31   1
M  END
$$$$
CHEMBL3623286_diffdock_8
     RDKit          3D

 32 36  0  0  0  0  0  0  0  0999 V2000
  -14.8314   10.6603  -25.9400 C   0  0  0  0  0  0  0  0  0  0  0  0
  -14.6543   12.0102  -25.5717 O   0  0  0  0  0  0  0  0  0  0  0  0
  -13.7106   12.7676  -26.2516 C   0  0  0  0  0  0  0  0  0  0  0  0
  -12.9010   12.2329  -27.2303 C   0  0  0  0  0  0  0  0  0  0  0  0
  -11.9527   12.9683  -27.9246 C   0  0  0  0  0  0  0  0  0  0  0  0
  -11.1756   12.4385  -28.8863 N   0  0  0  0  0  0  0  0  0  0  0  0
  -10.2780   13.1554  -29.5538 C   0  0  0  0  0  0  0  0  0  0  0  0
  -10.1435   14.4620  -29.2522 N   0  0  0  0  0  0  0  0  0  0  0  0
  -10.8925   15.0449  -28.2994 C   0  0  0  0  0  0  0  0  0  0  0  0
  -10.7470   16.4121  -27.9971 N   0  0  0  0  0  0  0  0  0  0  0  0
   -9.6861   17.1445  -28.5856 C   0  0  0  0  0  0  0  0  0  0  0  0
   -8.6829   17.7034  -27.7948 C   0  0  0  0  0  0  0  0  0  0  0  0
   -7.6532   18.4126  -28.3699 C   0  0  0  0  0  0  0  0  0  0  0  0
   -7.6217   18.5655  -29.7231 C   0  0  0  0  0  0  0  0  0  0  0  0
   -8.6015   18.0257  -30.5489 C   0  0  0  0  0  0  0  0  0  0  0  0
   -8.5780   18.2104  -32.2767 Cl  0  0  0  0  0  0  0  0  0  0  0  0
   -9.6343   17.3112  -29.9500 C   0  0  0  0  0  0  0  0  0  0  0  0
  -10.6065   16.7732  -30.7524 F   0  0  0  0  0  0  0  0  0  0  0  0
  -11.8274   14.3051  -27.6036 C   0  0  0  0  0  0  0  0  0  0  0  0
  -12.6402   14.8687  -26.6110 C   0  0  0  0  0  0  0  0  0  0  0  0
  -13.5639   14.1223  -25.9464 C   0  0  0  0  0  0  0  0  0  0  0  0
  -14.3916   14.6103  -24.9697 O   0  0  0  0  0  0  0  0  0  0  0  0
  -15.6178   15.2135  -25.1624 C   0  0  0  0  0  0  0  0  0  0  0  0
  -15.9086   15.5286  -26.3659 O   0  0  0  0  0  0  0  0  0  0  0  0
  -16.5185   15.4798  -24.1051 N   0  0  0  0  0  0  0  0  0  0  0  0
  -16.2419   15.3231  -22.6945 C   0  0  0  0  0  0  0  0  0  0  0  0
  -17.5760   15.5990  -22.0564 C   0  0  2  0  0  0  0  0  0  0  0  0
  -18.5201   15.0588  -23.1495 C   0  0  0  0  0  0  0  0  0  0  0  0
  -17.8798   15.9319  -24.2541 C   0  0  1  0  0  0  0  0  0  0  0  0
  -18.0231   17.2699  -23.6152 C   0  0  0  0  0  0  0  0  0  0  0  0
  -17.8315   17.0181  -22.1884 N   0  0  1  0  0  4  0  0  0  0  0  0
  -18.9715   17.4638  -21.4163 C   0  0  0  0  0  0  0  0  0  0  0  0
  1  2  1  0
  2  3  1  0
  3  4  2  0
  4  5  1  0
  5  6  2  0
  6  7  1  0
  7  8  2  0
  8  9  1  0
  9 10  1  0
 10 11  1  0
 11 12  2  0
 12 13  1  0
 13 14  2  0
 14 15  1  0
 15 16  1  0
 15 17  2  0
 17 18  1  0
  9 19  2  0
 19 20  1  0
 20 21  2  0
 21 22  1  0
 22 23  1  0
 23 24  2  0
 23 25  1  0
 25 26  1  0
 27 26  1  6
 27 28  1  0
 28 29  1  0
 29 30  1  1
 30 31  1  0
 31 32  1  1
 21  3  1  0
 29 25  1  0
 19  5  1  0
 31 27  1  0
 17 11  1  0
M  CHG  1  31   1
M  END
$$$$
CHEMBL3623286_diffdock_9
     RDKit          3D

 32 36  0  0  0  0  0  0  0  0999 V2000
  -14.9816   10.8560  -26.4992 C   0  0  0  0  0  0  0  0  0  0  0  0
  -14.8951   12.2514  -26.3119 O   0  0  0  0  0  0  0  0  0  0  0  0
  -13.9212   12.9571  -27.0047 C   0  0  0  0  0  0  0  0  0  0  0  0
  -13.0861   12.3562  -27.9216 C   0  0  0  0  0  0  0  0  0  0  0  0
  -12.1073   13.0391  -28.6272 C   0  0  0  0  0  0  0  0  0  0  0  0
  -11.3053   12.4445  -29.5286 N   0  0  0  0  0  0  0  0  0  0  0  0
  -10.3781   13.1109  -30.2079 C   0  0  0  0  0  0  0  0  0  0  0  0
  -10.2388   14.4321  -29.9817 N   0  0  0  0  0  0  0  0  0  0  0  0
  -11.0119   15.0790  -29.0914 C   0  0  0  0  0  0  0  0  0  0  0  0
  -10.8608   16.4607  -28.8678 N   0  0  0  0  0  0  0  0  0  0  0  0
   -9.8329   17.1652  -29.5425 C   0  0  0  0  0  0  0  0  0  0  0  0
   -9.6068   16.9629  -30.9035 C   0  0  0  0  0  0  0  0  0  0  0  0
   -8.6088   17.6503  -31.5558 C   0  0  0  0  0  0  0  0  0  0  0  0
   -7.8400   18.5327  -30.8590 C   0  0  0  0  0  0  0  0  0  0  0  0
   -8.0306   18.7645  -29.5013 C   0  0  0  0  0  0  0  0  0  0  0  0
   -7.0601   19.8861  -28.5959 Cl  0  0  0  0  0  0  0  0  0  0  0  0
   -9.0447   18.0613  -28.8585 C   0  0  0  0  0  0  0  0  0  0  0  0
   -9.2439   18.2806  -27.5203 F   0  0  0  0  0  0  0  0  0  0  0  0
  -11.9773   14.3917  -28.3837 C   0  0  0  0  0  0  0  0  0  0  0  0
  -12.8157   15.0223  -27.4547 C   0  0  0  0  0  0  0  0  0  0  0  0
  -13.7692   14.3264  -26.7773 C   0  0  0  0  0  0  0  0  0  0  0  0
  -14.6227   14.8807  -25.8600 O   0  0  0  0  0  0  0  0  0  0  0  0
  -15.4905   15.9310  -26.0801 C   0  0  0  0  0  0  0  0  0  0  0  0
  -15.4804   16.4346  -27.2543 O   0  0  0  0  0  0  0  0  0  0  0  0
  -16.3507   16.4403  -25.0799 N   0  0  0  0  0  0  0  0  0  0  0  0
  -17.2989   17.5195  -25.2446 C   0  0  0  0  0  0  0  0  0  0  0  0
  -17.8174   17.7293  -23.8481 C   0  0  2  0  0  0  0  0  0  0  0  0
  -16.5610   17.3655  -23.0313 C   0  0  0  0  0  0  0  0  0  0  0  0
  -16.4132   15.9850  -23.7129 C   0  0  1  0  0  0  0  0  0  0  0  0
  -17.7715   15.4371  -23.4418 C   0  0  0  0  0  0  0  0  0  0  0  0
  -18.6584   16.5955  -23.5259 N   0  0  1  0  0  4  0  0  0  0  0  0
  -19.4091   16.7754  -22.3017 C   0  0  0  0  0  0  0  0  0  0  0  0
  1  2  1  0
  2  3  1  0
  3  4  2  0
  4  5  1  0
  5  6  2  0
  6  7  1  0
  7  8  2  0
  8  9  1  0
  9 10  1  0
 10 11  1  0
 11 12  2  0
 12 13  1  0
 13 14  2  0
 14 15  1  0
 15 16  1  0
 15 17  2  0
 17 18  1  0
  9 19  2  0
 19 20  1  0
 20 21  2  0
 21 22  1  0
 22 23  1  0
 23 24  2  0
 23 25  1  0
 25 26  1  0
 27 26  1  6
 27 28  1  0
 28 29  1  0
 29 30  1  6
 30 31  1  0
 31 32  1  1
 21  3  1  0
 29 25  1  0
 19  5  1  0
 31 27  1  0
 17 11  1  0
M  CHG  1  31   1
M  END
$$$$
CHEMBL3623286_diffdock_10
     RDKit          3D

 32 36  0  0  0  0  0  0  0  0999 V2000
  -15.3271   10.6338  -27.2271 C   0  0  0  0  0  0  0  0  0  0  0  0
  -15.2561   11.9423  -26.7055 O   0  0  0  0  0  0  0  0  0  0  0  0
  -14.4433   12.8699  -27.3424 C   0  0  0  0  0  0  0  0  0  0  0  0
  -13.7303   12.5669  -28.4821 C   0  0  0  0  0  0  0  0  0  0  0  0
  -12.9135   13.4756  -29.1374 C   0  0  0  0  0  0  0  0  0  0  0  0
  -12.2310   13.1723  -30.2561 N   0  0  0  0  0  0  0  0  0  0  0  0
  -11.4601   14.0545  -30.8828 C   0  0  0  0  0  0  0  0  0  0  0  0
  -11.3605   15.2987  -30.3747 N   0  0  0  0  0  0  0  0  0  0  0  0
  -12.0191   15.6578  -29.2585 C   0  0  0  0  0  0  0  0  0  0  0  0
  -11.9116   16.9623  -28.7403 N   0  0  0  0  0  0  0  0  0  0  0  0
  -10.9039   17.8261  -29.2368 C   0  0  0  0  0  0  0  0  0  0  0  0
  -10.6789   17.9428  -30.6080 C   0  0  0  0  0  0  0  0  0  0  0  0
   -9.7006   18.7840  -31.0866 C   0  0  0  0  0  0  0  0  0  0  0  0
   -8.9501   19.5042  -30.2072 C   0  0  0  0  0  0  0  0  0  0  0  0
   -9.1402   19.4178  -28.8325 C   0  0  0  0  0  0  0  0  0  0  0  0
   -8.1928   20.3286  -27.6956 Cl  0  0  0  0  0  0  0  0  0  0  0  0
  -10.1343   18.5630  -28.3668 C   0  0  0  0  0  0  0  0  0  0  0  0
  -10.3328   18.4687  -27.0139 F   0  0  0  0  0  0  0  0  0  0  0  0
  -12.8221   14.7456  -28.6040 C   0  0  0  0  0  0  0  0  0  0  0  0
  -13.5382   15.0743  -27.4453 C   0  0  0  0  0  0  0  0  0  0  0  0
  -14.3336   14.1616  -26.8236 C   0  0  0  0  0  0  0  0  0  0  0  0
  -15.0622   14.4176  -25.6919 O   0  0  0  0  0  0  0  0  0  0  0  0
  -16.0679   15.3535  -25.5605 C   0  0  0  0  0  0  0  0  0  0  0  0
  -16.3919   15.9864  -26.6221 O   0  0  0  0  0  0  0  0  0  0  0  0
  -16.7178   15.6168  -24.3324 N   0  0  0  0  0  0  0  0  0  0  0  0
  -16.3497   15.0740  -23.0437 C   0  0  0  0  0  0  0  0  0  0  0  0
  -17.4519   15.5631  -22.1443 C   0  0  2  0  0  0  0  0  0  0  0  0
  -18.6322   15.5724  -23.1366 C   0  0  0  0  0  0  0  0  0  0  0  0
  -17.8778   16.4557  -24.1579 C   0  0  1  0  0  0  0  0  0  0  0  0
  -17.5249   17.5993  -23.2711 C   0  0  0  0  0  0  0  0  0  0  0  0
  -17.2648   16.9882  -21.9693 N   0  0  1  0  0  4  0  0  0  0  0  0
  -18.1160   17.5506  -20.9429 C   0  0  0  0  0  0  0  0  0  0  0  0
  1  2  1  0
  2  3  1  0
  3  4  2  0
  4  5  1  0
  5  6  2  0
  6  7  1  0
  7  8  2  0
  8  9  1  0
  9 10  1  0
 10 11  1  0
 11 12  2  0
 12 13  1  0
 13 14  2  0
 14 15  1  0
 15 16  1  0
 15 17  2  0
 17 18  1  0
  9 19  2  0
 19 20  1  0
 20 21  2  0
 21 22  1  0
 22 23  1  0
 23 24  2  0
 23 25  1  0
 25 26  1  0
 27 26  1  6
 27 28  1  0
 28 29  1  0
 29 30  1  1
 30 31  1  0
 31 32  1  1
 21  3  1  0
 29 25  1  0
 19  5  1  0
 31 27  1  0
 17 11  1  0
M  CHG  1  31   1
M  END
$$$$
CHEMBL2031296_diffdock_1
     RDKit          3D

 22 24  0  0  0  0  0  0  0  0999 V2000
  -15.5021    9.5163  -27.5753 C   0  0  0  0  0  0  0  0  0  0  0  0
  -15.0653   10.9351  -27.3557 C   0  0  0  0  0  0  0  0  0  0  0  0
  -14.0119   11.3132  -27.9282 O   0  0  0  0  0  0  0  0  0  0  0  0
  -15.7737   11.8355  -26.5519 N   0  0  0  0  0  0  0  0  0  0  0  0
  -15.3851   13.1997  -26.3368 C   0  0  0  0  0  0  0  0  0  0  0  0
  -16.0805   14.0423  -25.5035 C   0  0  0  0  0  0  0  0  0  0  0  0
  -15.6594   15.3349  -25.3385 C   0  0  0  0  0  0  0  0  0  0  0  0
  -14.5298   15.7970  -26.0121 C   0  0  0  0  0  0  0  0  0  0  0  0
  -14.1468   17.0842  -25.8190 N   0  0  0  0  0  0  0  0  0  0  0  0
  -13.0673   17.5491  -26.4528 C   0  0  0  0  0  0  0  0  0  0  0  0
  -12.3948   16.7410  -27.2565 N   0  0  0  0  0  0  0  0  0  0  0  0
  -12.6835   15.4602  -27.5176 C   0  0  0  0  0  0  0  0  0  0  0  0
  -11.9465   14.6376  -28.3748 N   0  0  0  0  0  0  0  0  0  0  0  0
  -10.7080   14.9536  -28.9972 C   0  0  0  0  0  0  0  0  0  0  0  0
   -9.6909   14.0471  -29.1571 C   0  0  0  0  0  0  0  0  0  0  0  0
   -8.5225   14.4682  -29.7948 C   0  0  0  0  0  0  0  0  0  0  0  0
   -8.3304   15.7329  -30.2706 C   0  0  0  0  0  0  0  0  0  0  0  0
   -9.3568   16.6496  -30.1095 C   0  0  0  0  0  0  0  0  0  0  0  0
   -9.1022   18.4203  -30.7685 Br  0  0  0  0  0  0  0  0  0  0  0  0
  -10.5194   16.2590  -29.4838 C   0  0  0  0  0  0  0  0  0  0  0  0
  -13.8145   14.9652  -26.8563 C   0  0  0  0  0  0  0  0  0  0  0  0
  -14.2553   13.6866  -27.0015 C   0  0  0  0  0  0  0  0  0  0  0  0
  1  2  1  0
  2  3  2  0
  2  4  1  0
  4  5  1  0
  5  6  2  0
  6  7  1  0
  7  8  2  0
  8  9  1  0
  9 10  2  0
 10 11  1  0
 11 12  2  0
 12 13  1  0
 13 14  1  0
 14 15  2  0
 15 16  1  0
 16 17  2  0
 17 18  1  0
 18 19  1  0
 18 20  2  0
 12 21  1  0
 21 22  2  0
 22  5  1  0
 21  8  1  0
 20 14  1  0
M  END
$$$$
CHEMBL2031296_diffdock_2
     RDKit          3D

 22 24  0  0  0  0  0  0  0  0999 V2000
  -15.9679   17.3445  -24.6582 C   0  0  0  0  0  0  0  0  0  0  0  0
  -15.1381   16.6852  -25.7205 C   0  0  0  0  0  0  0  0  0  0  0  0
  -14.3427   17.4111  -26.3693 O   0  0  0  0  0  0  0  0  0  0  0  0
  -15.2158   15.3182  -26.0103 N   0  0  0  0  0  0  0  0  0  0  0  0
  -14.3318   14.6352  -26.9106 C   0  0  0  0  0  0  0  0  0  0  0  0
  -14.3944   13.2784  -27.1184 C   0  0  0  0  0  0  0  0  0  0  0  0
  -13.5230   12.6838  -27.9916 C   0  0  0  0  0  0  0  0  0  0  0  0
  -12.5751   13.4494  -28.6686 C   0  0  0  0  0  0  0  0  0  0  0  0
  -11.7321   12.8200  -29.5254 N   0  0  0  0  0  0  0  0  0  0  0  0
  -10.8162   13.5328  -30.1860 C   0  0  0  0  0  0  0  0  0  0  0  0
  -10.7524   14.8397  -29.9887 N   0  0  0  0  0  0  0  0  0  0  0  0
  -11.5313   15.5583  -29.1706 C   0  0  0  0  0  0  0  0  0  0  0  0
  -11.4322   16.9410  -28.9893 N   0  0  0  0  0  0  0  0  0  0  0  0
  -10.5591   17.8267  -29.6780 C   0  0  0  0  0  0  0  0  0  0  0  0
   -9.8916   18.8566  -29.0650 C   0  0  0  0  0  0  0  0  0  0  0  0
   -9.0502   19.6556  -29.8413 C   0  0  0  0  0  0  0  0  0  0  0  0
   -8.8510   19.4732  -31.1792 C   0  0  0  0  0  0  0  0  0  0  0  0
   -9.5248   18.4336  -31.7996 C   0  0  0  0  0  0  0  0  0  0  0  0
   -9.2568   18.1673  -33.6682 Br  0  0  0  0  0  0  0  0  0  0  0  0
  -10.3606   17.6310  -31.0559 C   0  0  0  0  0  0  0  0  0  0  0  0
  -12.4945   14.8176  -28.4743 C   0  0  0  0  0  0  0  0  0  0  0  0
  -13.3722   15.3817  -27.6014 C   0  0  0  0  0  0  0  0  0  0  0  0
  1  2  1  0
  2  3  2  0
  2  4  1  0
  4  5  1  0
  5  6  2  0
  6  7  1  0
  7  8  2  0
  8  9  1  0
  9 10  2  0
 10 11  1  0
 11 12  2  0
 12 13  1  0
 13 14  1  0
 14 15  2  0
 15 16  1  0
 16 17  2  0
 17 18  1  0
 18 19  1  0
 18 20  2  0
 12 21  1  0
 21 22  2  0
 22  5  1  0
 21  8  1  0
 20 14  1  0
M  END
$$$$
CHEMBL2031296_diffdock_3
     RDKit          3D

 22 24  0  0  0  0  0  0  0  0999 V2000
  -15.6506   17.2858  -24.5391 C   0  0  0  0  0  0  0  0  0  0  0  0
  -14.8292   16.6275  -25.6085 C   0  0  0  0  0  0  0  0  0  0  0  0
  -14.0610   17.3590  -26.2830 O   0  0  0  0  0  0  0  0  0  0  0  0
  -14.8860   15.2552  -25.8776 N   0  0  0  0  0  0  0  0  0  0  0  0
  -13.9713   14.5664  -26.7420 C   0  0  0  0  0  0  0  0  0  0  0  0
  -13.9573   13.1975  -26.8608 C   0  0  0  0  0  0  0  0  0  0  0  0
  -13.0599   12.5978  -27.7036 C   0  0  0  0  0  0  0  0  0  0  0  0
  -12.1630   13.3703  -28.4396 C   0  0  0  0  0  0  0  0  0  0  0  0
  -11.2918   12.7354  -29.2636 N   0  0  0  0  0  0  0  0  0  0  0  0
  -10.4237   13.4545  -29.9794 C   0  0  0  0  0  0  0  0  0  0  0  0
  -10.4337   14.7731  -29.8678 N   0  0  0  0  0  0  0  0  0  0  0  0
  -11.2462   15.4979  -29.0890 C   0  0  0  0  0  0  0  0  0  0  0  0
  -11.2255   16.8929  -28.9987 N   0  0  0  0  0  0  0  0  0  0  0  0
  -10.4133   17.7803  -29.7563 C   0  0  0  0  0  0  0  0  0  0  0  0
   -9.8049   18.8880  -29.2225 C   0  0  0  0  0  0  0  0  0  0  0  0
   -9.0197   19.6812  -30.0612 C   0  0  0  0  0  0  0  0  0  0  0  0
   -8.8202   19.4199  -31.3859 C   0  0  0  0  0  0  0  0  0  0  0  0
   -9.4343   18.3017  -31.9263 C   0  0  0  0  0  0  0  0  0  0  0  0
   -9.1651   17.9247  -33.7756 Br  0  0  0  0  0  0  0  0  0  0  0  0
  -10.2139   17.5031  -31.1200 C   0  0  0  0  0  0  0  0  0  0  0  0
  -12.1598   14.7506  -28.3352 C   0  0  0  0  0  0  0  0  0  0  0  0
  -13.0616   15.3196  -27.4906 C   0  0  0  0  0  0  0  0  0  0  0  0
  1  2  1  0
  2  3  2  0
  2  4  1  0
  4  5  1  0
  5  6  2  0
  6  7  1  0
  7  8  2  0
  8  9  1  0
  9 10  2  0
 10 11  1  0
 11 12  2  0
 12 13  1  0
 13 14  1  0
 14 15  2  0
 15 16  1  0
 16 17  2  0
 17 18  1  0
 18 19  1  0
 18 20  2  0
 12 21  1  0
 21 22  2  0
 22  5  1  0
 21  8  1  0
 20 14  1  0
M  END
$$$$
CHEMBL2031296_diffdock_4
     RDKit          3D

 22 24  0  0  0  0  0  0  0  0999 V2000
  -16.0652   17.5587  -24.3822 C   0  0  0  0  0  0  0  0  0  0  0  0
  -15.2831   16.9188  -25.4915 C   0  0  0  0  0  0  0  0  0  0  0  0
  -14.5030   17.6527  -26.1498 O   0  0  0  0  0  0  0  0  0  0  0  0
  -15.3883   15.5611  -25.8144 N   0  0  0  0  0  0  0  0  0  0  0  0
  -14.4885   14.8710  -26.6933 C   0  0  0  0  0  0  0  0  0  0  0  0
  -14.5120   13.5062  -26.8501 C   0  0  0  0  0  0  0  0  0  0  0  0
  -13.6272   12.9050  -27.7051 C   0  0  0  0  0  0  0  0  0  0  0  0
  -12.7050   13.6722  -28.4151 C   0  0  0  0  0  0  0  0  0  0  0  0
  -11.8474   13.0361  -29.2523 N   0  0  0  0  0  0  0  0  0  0  0  0
  -10.9557   13.7502  -29.9437 C   0  0  0  0  0  0  0  0  0  0  0  0
  -10.9294   15.0649  -29.7955 N   0  0  0  0  0  0  0  0  0  0  0  0
  -11.7256   15.7904  -29.0006 C   0  0  0  0  0  0  0  0  0  0  0  0
  -11.6665   17.1812  -28.8714 N   0  0  0  0  0  0  0  0  0  0  0  0
  -10.8115   18.0642  -29.5859 C   0  0  0  0  0  0  0  0  0  0  0  0
  -10.1527   19.1153  -29.0001 C   0  0  0  0  0  0  0  0  0  0  0  0
   -9.3290   19.9094  -29.8001 C   0  0  0  0  0  0  0  0  0  0  0  0
   -9.1391   19.7022  -31.1358 C   0  0  0  0  0  0  0  0  0  0  0  0
   -9.8041   18.6412  -31.7287 C   0  0  0  0  0  0  0  0  0  0  0  0
   -9.5489   18.3401  -33.5938 Br  0  0  0  0  0  0  0  0  0  0  0  0
  -10.6224   17.8430  -30.9612 C   0  0  0  0  0  0  0  0  0  0  0  0
  -12.6638   15.0485  -28.2722 C   0  0  0  0  0  0  0  0  0  0  0  0
  -13.5540   15.6189  -27.4164 C   0  0  0  0  0  0  0  0  0  0  0  0
  1  2  1  0
  2  3  2  0
  2  4  1  0
  4  5  1  0
  5  6  2  0
  6  7  1  0
  7  8  2  0
  8  9  1  0
  9 10  2  0
 10 11  1  0
 11 12  2  0
 12 13  1  0
 13 14  1  0
 14 15  2  0
 15 16  1  0
 16 17  2  0
 17 18  1  0
 18 19  1  0
 18 20  2  0
 12 21  1  0
 21 22  2  0
 22  5  1  0
 21  8  1  0
 20 14  1  0
M  END
$$$$
CHEMBL2031296_diffdock_5
     RDKit          3D

 22 24  0  0  0  0  0  0  0  0999 V2000
  -16.3811   17.4118  -24.7529 C   0  0  0  0  0  0  0  0  0  0  0  0
  -15.4543   16.6902  -25.6868 C   0  0  0  0  0  0  0  0  0  0  0  0
  -14.6763   17.3875  -26.3859 O   0  0  0  0  0  0  0  0  0  0  0  0
  -15.4249   15.2960  -25.8060 N   0  0  0  0  0  0  0  0  0  0  0  0
  -14.4801   14.5773  -26.6117 C   0  0  0  0  0  0  0  0  0  0  0  0
  -14.5186   13.2109  -26.7516 C   0  0  0  0  0  0  0  0  0  0  0  0
  -13.5888   12.5816  -27.5357 C   0  0  0  0  0  0  0  0  0  0  0  0
  -12.6058   13.3217  -28.1907 C   0  0  0  0  0  0  0  0  0  0  0  0
  -11.7050   12.6582  -28.9584 N   0  0  0  0  0  0  0  0  0  0  0  0
  -10.7547   13.3460  -29.5963 C   0  0  0  0  0  0  0  0  0  0  0  0
  -10.7138   14.6621  -29.4641 N   0  0  0  0  0  0  0  0  0  0  0  0
  -11.5488   15.4132  -28.7356 C   0  0  0  0  0  0  0  0  0  0  0  0
  -11.4724   16.8045  -28.6211 N   0  0  0  0  0  0  0  0  0  0  0  0
  -10.3988   17.6333  -29.0474 C   0  0  0  0  0  0  0  0  0  0  0  0
   -9.4181   17.2137  -29.9099 C   0  0  0  0  0  0  0  0  0  0  0  0
   -8.4186   18.1203  -30.2680 C   0  0  0  0  0  0  0  0  0  0  0  0
   -8.3581   19.4045  -29.8094 C   0  0  0  0  0  0  0  0  0  0  0  0
   -9.3479   19.8294  -28.9380 C   0  0  0  0  0  0  0  0  0  0  0  0
   -9.2759   21.6204  -28.2887 Br  0  0  0  0  0  0  0  0  0  0  0  0
  -10.3449   18.9543  -28.5694 C   0  0  0  0  0  0  0  0  0  0  0  0
  -12.5486   14.6989  -28.0636 C   0  0  0  0  0  0  0  0  0  0  0  0
  -13.4844   15.2976  -27.2787 C   0  0  0  0  0  0  0  0  0  0  0  0
  1  2  1  0
  2  3  2  0
  2  4  1  0
  4  5  1  0
  5  6  2  0
  6  7  1  0
  7  8  2  0
  8  9  1  0
  9 10  2  0
 10 11  1  0
 11 12  2  0
 12 13  1  0
 13 14  1  0
 14 15  2  0
 15 16  1  0
 16 17  2  0
 17 18  1  0
 18 19  1  0
 18 20  2  0
 12 21  1  0
 21 22  2  0
 22  5  1  0
 21  8  1  0
 20 14  1  0
M  END
$$$$
CHEMBL2031296_diffdock_6
     RDKit          3D

 22 24  0  0  0  0  0  0  0  0999 V2000
  -15.3879   18.2241  -25.3544 C   0  0  0  0  0  0  0  0  0  0  0  0
  -14.6079   17.3384  -26.2813 C   0  0  0  0  0  0  0  0  0  0  0  0
  -13.8662   17.8961  -27.1294 O   0  0  0  0  0  0  0  0  0  0  0  0
  -14.6747   15.9412  -26.2374 N   0  0  0  0  0  0  0  0  0  0  0  0
  -13.8645   15.0714  -27.0406 C   0  0  0  0  0  0  0  0  0  0  0  0
  -13.9502   13.7022  -26.9623 C   0  0  0  0  0  0  0  0  0  0  0  0
  -13.1499   12.9247  -27.7561 C   0  0  0  0  0  0  0  0  0  0  0  0
  -12.2507   13.5170  -28.6414 C   0  0  0  0  0  0  0  0  0  0  0  0
  -11.4776   12.7093  -29.4102 N   0  0  0  0  0  0  0  0  0  0  0  0
  -10.6096   13.2539  -30.2664 C   0  0  0  0  0  0  0  0  0  0  0  0
  -10.5236   14.5721  -30.3449 N   0  0  0  0  0  0  0  0  0  0  0  0
  -11.2351   15.4578  -29.6367 C   0  0  0  0  0  0  0  0  0  0  0  0
  -11.1148   16.8462  -29.7489 N   0  0  0  0  0  0  0  0  0  0  0  0
  -10.2936   17.5553  -30.6676 C   0  0  0  0  0  0  0  0  0  0  0  0
  -10.3257   17.3488  -32.0234 C   0  0  0  0  0  0  0  0  0  0  0  0
   -9.4807   18.1133  -32.8300 C   0  0  0  0  0  0  0  0  0  0  0  0
   -8.6209   19.0578  -32.3488 C   0  0  0  0  0  0  0  0  0  0  0  0
   -8.5873   19.2671  -30.9796 C   0  0  0  0  0  0  0  0  0  0  0  0
   -7.3906   20.5828  -30.2930 Br  0  0  0  0  0  0  0  0  0  0  0  0
   -9.4110   18.5258  -30.1624 C   0  0  0  0  0  0  0  0  0  0  0  0
  -12.1480   14.8942  -28.7366 C   0  0  0  0  0  0  0  0  0  0  0  0
  -12.9547   15.6418  -27.9363 C   0  0  0  0  0  0  0  0  0  0  0  0
  1  2  1  0
  2  3  2  0
  2  4  1  0
  4  5  1  0
  5  6  2  0
  6  7  1  0
  7  8  2  0
  8  9  1  0
  9 10  2  0
 10 11  1  0
 11 12  2  0
 12 13  1  0
 13 14  1  0
 14 15  2  0
 15 16  1  0
 16 17  2  0
 17 18  1  0
 18 19  1  0
 18 20  2  0
 12 21  1  0
 21 22  2  0
 22  5  1  0
 21  8  1  0
 20 14  1  0
M  END
$$$$
CHEMBL2031296_diffdock_7
     RDKit          3D

 22 24  0  0  0  0  0  0  0  0999 V2000
  -16.1475   17.0212  -24.0276 C   0  0  0  0  0  0  0  0  0  0  0  0
  -15.2094   16.4593  -25.0552 C   0  0  0  0  0  0  0  0  0  0  0  0
  -14.4247   17.2600  -25.6240 O   0  0  0  0  0  0  0  0  0  0  0  0
  -15.1767   15.1027  -25.3975 N   0  0  0  0  0  0  0  0  0  0  0  0
  -14.2141   14.5206  -26.2880 C   0  0  0  0  0  0  0  0  0  0  0  0
  -14.2052   13.1804  -26.5910 C   0  0  0  0  0  0  0  0  0  0  0  0
  -13.2606   12.6840  -27.4492 C   0  0  0  0  0  0  0  0  0  0  0  0
  -12.3104   13.5326  -28.0151 C   0  0  0  0  0  0  0  0  0  0  0  0
  -11.3935   12.9993  -28.8611 N   0  0  0  0  0  0  0  0  0  0  0  0
  -10.4740   13.7928  -29.4160 C   0  0  0  0  0  0  0  0  0  0  0  0
  -10.4788   15.0841  -29.1268 N   0  0  0  0  0  0  0  0  0  0  0  0
  -11.3335   15.7116  -28.3095 C   0  0  0  0  0  0  0  0  0  0  0  0
  -11.3057   17.0809  -28.0290 N   0  0  0  0  0  0  0  0  0  0  0  0
  -10.4096   18.0407  -28.5740 C   0  0  0  0  0  0  0  0  0  0  0  0
  -10.6275   19.3940  -28.5175 C   0  0  0  0  0  0  0  0  0  0  0  0
   -9.6708   20.2428  -29.0772 C   0  0  0  0  0  0  0  0  0  0  0  0
   -8.5270   19.8055  -29.6799 C   0  0  0  0  0  0  0  0  0  0  0  0
   -8.3059   18.4390  -29.7380 C   0  0  0  0  0  0  0  0  0  0  0  0
   -6.7127   17.8136  -30.5777 Br  0  0  0  0  0  0  0  0  0  0  0  0
   -9.2344   17.5806  -29.1932 C   0  0  0  0  0  0  0  0  0  0  0  0
  -12.3011   14.8859  -27.7237 C   0  0  0  0  0  0  0  0  0  0  0  0
  -13.2507   15.3515  -26.8682 C   0  0  0  0  0  0  0  0  0  0  0  0
  1  2  1  0
  2  3  2  0
  2  4  1  0
  4  5  1  0
  5  6  2  0
  6  7  1  0
  7  8  2  0
  8  9  1  0
  9 10  2  0
 10 11  1  0
 11 12  2  0
 12 13  1  0
 13 14  1  0
 14 15  2  0
 15 16  1  0
 16 17  2  0
 17 18  1  0
 18 19  1  0
 18 20  2  0
 12 21  1  0
 21 22  2  0
 22  5  1  0
 21  8  1  0
 20 14  1  0
M  END
$$$$
CHEMBL2031296_diffdock_8
     RDKit          3D

 22 24  0  0  0  0  0  0  0  0999 V2000
  -16.2772   16.9923  -24.1670 C   0  0  0  0  0  0  0  0  0  0  0  0
  -15.3605   16.4557  -25.2271 C   0  0  0  0  0  0  0  0  0  0  0  0
  -14.7011   17.2882  -25.8997 O   0  0  0  0  0  0  0  0  0  0  0  0
  -15.2158   15.0886  -25.4897 N   0  0  0  0  0  0  0  0  0  0  0  0
  -14.2246   14.5389  -26.3693 C   0  0  0  0  0  0  0  0  0  0  0  0
  -14.1180   13.1903  -26.6097 C   0  0  0  0  0  0  0  0  0  0  0  0
  -13.1507   12.7261  -27.4607 C   0  0  0  0  0  0  0  0  0  0  0  0
  -12.2760   13.6159  -28.0821 C   0  0  0  0  0  0  0  0  0  0  0  0
  -11.3332   13.1135  -28.9186 N   0  0  0  0  0  0  0  0  0  0  0  0
  -10.4847   13.9466  -29.5260 C   0  0  0  0  0  0  0  0  0  0  0  0
  -10.5837   15.2462  -29.2970 N   0  0  0  0  0  0  0  0  0  0  0  0
  -11.4719   15.8457  -28.4947 C   0  0  0  0  0  0  0  0  0  0  0  0
  -11.5443   17.2251  -28.2786 N   0  0  0  0  0  0  0  0  0  0  0  0
  -10.6510   18.2107  -28.7806 C   0  0  0  0  0  0  0  0  0  0  0  0
  -10.6026   19.4969  -28.3061 C   0  0  0  0  0  0  0  0  0  0  0  0
   -9.6751   20.3759  -28.8683 C   0  0  0  0  0  0  0  0  0  0  0  0
   -8.8099   20.0311  -29.8661 C   0  0  0  0  0  0  0  0  0  0  0  0
   -8.8580   18.7324  -30.3465 C   0  0  0  0  0  0  0  0  0  0  0  0
   -7.6560   18.2367  -31.7407 Br  0  0  0  0  0  0  0  0  0  0  0  0
   -9.7640   17.8462  -29.8085 C   0  0  0  0  0  0  0  0  0  0  0  0
  -12.3655   14.9784  -27.8541 C   0  0  0  0  0  0  0  0  0  0  0  0
  -13.3354   15.4115  -27.0044 C   0  0  0  0  0  0  0  0  0  0  0  0
  1  2  1  0
  2  3  2  0
  2  4  1  0
  4  5  1  0
  5  6  2  0
  6  7  1  0
  7  8  2  0
  8  9  1  0
  9 10  2  0
 10 11  1  0
 11 12  2  0
 12 13  1  0
 13 14  1  0
 14 15  2  0
 15 16  1  0
 16 17  2  0
 17 18  1  0
 18 19  1  0
 18 20  2  0
 12 21  1  0
 21 22  2  0
 22  5  1  0
 21  8  1  0
 20 14  1  0
M  END
$$$$
CHEMBL2031296_diffdock_9
     RDKit          3D

 22 24  0  0  0  0  0  0  0  0999 V2000
  -16.4875   17.3983  -25.0783 C   0  0  0  0  0  0  0  0  0  0  0  0
  -15.5549   16.7902  -26.0845 C   0  0  0  0  0  0  0  0  0  0  0  0
  -14.9273   17.5734  -26.8416 O   0  0  0  0  0  0  0  0  0  0  0  0
  -15.3620   15.4096  -26.2090 N   0  0  0  0  0  0  0  0  0  0  0  0
  -14.4193   14.8068  -27.1069 C   0  0  0  0  0  0  0  0  0  0  0  0
  -14.4209   13.4609  -27.3838 C   0  0  0  0  0  0  0  0  0  0  0  0
  -13.4952   12.9444  -28.2507 C   0  0  0  0  0  0  0  0  0  0  0  0
  -12.5535   13.7783  -28.8515 C   0  0  0  0  0  0  0  0  0  0  0  0
  -11.6553   13.2252  -29.7049 N   0  0  0  0  0  0  0  0  0  0  0  0
  -10.7442   14.0043  -30.2932 C   0  0  0  0  0  0  0  0  0  0  0  0
  -10.7390   15.3010  -30.0291 N   0  0  0  0  0  0  0  0  0  0  0  0
  -11.5752   15.9474  -29.2075 C   0  0  0  0  0  0  0  0  0  0  0  0
  -11.5371   17.3218  -28.9543 N   0  0  0  0  0  0  0  0  0  0  0  0
  -10.5533   18.2416  -29.4094 C   0  0  0  0  0  0  0  0  0  0  0  0
  -10.5873   19.5838  -29.1276 C   0  0  0  0  0  0  0  0  0  0  0  0
   -9.5589   20.3900  -29.6190 C   0  0  0  0  0  0  0  0  0  0  0  0
   -8.5172   19.9213  -30.3661 C   0  0  0  0  0  0  0  0  0  0  0  0
   -8.4819   18.5660  -30.6517 C   0  0  0  0  0  0  0  0  0  0  0  0
   -7.0332   17.8972  -31.6950 Br  0  0  0  0  0  0  0  0  0  0  0  0
   -9.4845   17.7494  -30.1786 C   0  0  0  0  0  0  0  0  0  0  0  0
  -12.5339   15.1369  -28.5868 C   0  0  0  0  0  0  0  0  0  0  0  0
  -13.4647   15.6226  -27.7219 C   0  0  0  0  0  0  0  0  0  0  0  0
  1  2  1  0
  2  3  2  0
  2  4  1  0
  4  5  1  0
  5  6  2  0
  6  7  1  0
  7  8  2  0
  8  9  1  0
  9 10  2  0
 10 11  1  0
 11 12  2  0
 12 13  1  0
 13 14  1  0
 14 15  2  0
 15 16  1  0
 16 17  2  0
 17 18  1  0
 18 19  1  0
 18 20  2  0
 12 21  1  0
 21 22  2  0
 22  5  1  0
 21  8  1  0
 20 14  1  0
M  END
$$$$
CHEMBL2031296_diffdock_10
     RDKit          3D

 22 24  0  0  0  0  0  0  0  0999 V2000
  -17.0712   15.2049  -24.0846 C   0  0  0  0  0  0  0  0  0  0  0  0
  -16.1282   14.5869  -25.0748 C   0  0  0  0  0  0  0  0  0  0  0  0
  -16.1808   13.3400  -25.2261 O   0  0  0  0  0  0  0  0  0  0  0  0
  -15.2095   15.3333  -25.8216 N   0  0  0  0  0  0  0  0  0  0  0  0
  -14.2204   14.7582  -26.6873 C   0  0  0  0  0  0  0  0  0  0  0  0
  -14.1629   13.4105  -26.9491 C   0  0  0  0  0  0  0  0  0  0  0  0
  -13.1949   12.9214  -27.7852 C   0  0  0  0  0  0  0  0  0  0  0  0
  -12.2701   13.7849  -28.3701 C   0  0  0  0  0  0  0  0  0  0  0  0
  -11.3286   13.2583  -29.1930 N   0  0  0  0  0  0  0  0  0  0  0  0
  -10.4326   14.0660  -29.7656 C   0  0  0  0  0  0  0  0  0  0  0  0
  -10.4842   15.3645  -29.5160 N   0  0  0  0  0  0  0  0  0  0  0  0
  -11.3664   15.9865  -28.7242 C   0  0  0  0  0  0  0  0  0  0  0  0
  -11.3880   17.3638  -28.4855 N   0  0  0  0  0  0  0  0  0  0  0  0
  -10.5766   18.3469  -29.1150 C   0  0  0  0  0  0  0  0  0  0  0  0
  -10.5157   19.6532  -28.7005 C   0  0  0  0  0  0  0  0  0  0  0  0
   -9.6733   20.5280  -29.3891 C   0  0  0  0  0  0  0  0  0  0  0  0
   -8.9034   20.1602  -30.4545 C   0  0  0  0  0  0  0  0  0  0  0  0
   -8.9642   18.8413  -30.8742 C   0  0  0  0  0  0  0  0  0  0  0  0
   -7.8948   18.3134  -32.3616 Br  0  0  0  0  0  0  0  0  0  0  0  0
   -9.7874   17.9587  -30.2117 C   0  0  0  0  0  0  0  0  0  0  0  0
  -12.3097   15.1458  -28.1201 C   0  0  0  0  0  0  0  0  0  0  0  0
  -13.2815   15.6041  -27.2859 C   0  0  0  0  0  0  0  0  0  0  0  0
  1  2  1  0
  2  3  2  0
  2  4  1  0
  4  5  1  0
  5  6  2  0
  6  7  1  0
  7  8  2  0
  8  9  1  0
  9 10  2  0
 10 11  1  0
 11 12  2  0
 12 13  1  0
 13 14  1  0
 14 15  2  0
 15 16  1  0
 16 17  2  0
 17 18  1  0
 18 19  1  0
 18 20  2  0
 12 21  1  0
 21 22  2  0
 22  5  1  0
 21  8  1  0
 20 14  1  0
M  END
$$$$
CHEMBL205149_diffdock_1
     RDKit          3D

 28 31  0  0  0  0  0  0  0  0999 V2000
  -15.9780   11.3264  -26.4977 C   0  0  0  0  0  0  0  0  0  0  0  0
  -15.8110   12.7010  -26.1688 O   0  0  0  0  0  0  0  0  0  0  0  0
  -14.7925   13.3860  -26.8452 C   0  0  0  0  0  0  0  0  0  0  0  0
  -14.6035   14.7463  -26.6223 C   0  0  0  0  0  0  0  0  0  0  0  0
  -13.6235   15.4853  -27.2502 C   0  0  0  0  0  0  0  0  0  0  0  0
  -13.4009   16.8065  -27.0659 O   0  0  0  0  0  0  0  0  0  0  0  0
  -13.9428   17.7426  -26.2244 C   0  0  0  0  0  0  0  0  0  0  0  0
  -13.0111   18.6552  -25.5375 C   0  0  0  0  0  0  0  0  0  0  0  0
  -13.1626   18.7976  -24.0602 C   0  0  0  0  0  0  0  0  0  0  0  0
  -14.4916   18.7661  -23.5600 N   0  0  0  0  0  0  0  0  0  0  0  0
  -15.4813   18.2356  -24.4394 C   0  0  0  0  0  0  0  0  0  0  0  0
  -14.8795   17.0809  -25.2333 C   0  0  0  0  0  0  0  0  0  0  0  0
  -12.7987   14.8022  -28.1478 C   0  0  0  0  0  0  0  0  0  0  0  0
  -11.8188   15.5245  -28.7813 C   0  0  0  0  0  0  0  0  0  0  0  0
  -11.6228   16.9044  -28.5564 N   0  0  0  0  0  0  0  0  0  0  0  0
  -10.6791   17.6099  -29.3257 C   0  0  0  0  0  0  0  0  0  0  0  0
   -9.8413   18.5443  -28.7690 C   0  0  0  0  0  0  0  0  0  0  0  0
   -8.9218   19.2213  -29.5563 C   0  0  0  0  0  0  0  0  0  0  0  0
   -8.8101   18.9904  -30.9087 C   0  0  0  0  0  0  0  0  0  0  0  0
   -7.8950   19.6680  -31.6770 F   0  0  0  0  0  0  0  0  0  0  0  0
   -9.6483   18.0546  -31.4697 C   0  0  0  0  0  0  0  0  0  0  0  0
   -9.5077   17.7590  -33.1893 Cl  0  0  0  0  0  0  0  0  0  0  0  0
  -10.5575   17.3877  -30.6810 C   0  0  0  0  0  0  0  0  0  0  0  0
  -11.0224   14.8442  -29.6545 N   0  0  0  0  0  0  0  0  0  0  0  0
  -11.1536   13.5346  -29.9126 C   0  0  0  0  0  0  0  0  0  0  0  0
  -12.1170   12.8582  -29.2803 N   0  0  0  0  0  0  0  0  0  0  0  0
  -12.9461   13.4552  -28.4026 C   0  0  0  0  0  0  0  0  0  0  0  0
  -13.9478   12.7769  -27.7387 C   0  0  0  0  0  0  0  0  0  0  0  0
  1  2  1  0
  2  3  1  0
  3  4  2  0
  4  5  1  0
  5  6  1  0
  7  6  1  0
  7  8  1  0
  8  9  1  0
  9 10  1  0
 10 11  1  0
 11 12  1  0
  5 13  2  0
 13 14  1  0
 14 15  1  0
 15 16  1  0
 16 17  2  0
 17 18  1  0
 18 19  2  0
 19 20  1  0
 19 21  1  0
 21 22  1  0
 21 23  2  0
 14 24  2  0
 24 25  1  0
 25 26  2  0
 26 27  1  0
 27 28  2  0
 28  3  1  0
 12  7  1  0
 27 13  1  0
 23 16  1  0
M  END
$$$$
CHEMBL205149_diffdock_2
     RDKit          3D

 28 31  0  0  0  0  0  0  0  0999 V2000
  -15.4301   10.6454  -26.6990 C   0  0  0  0  0  0  0  0  0  0  0  0
  -15.4783   12.0248  -26.3517 O   0  0  0  0  0  0  0  0  0  0  0  0
  -14.5222   12.8543  -26.9534 C   0  0  0  0  0  0  0  0  0  0  0  0
  -14.5322   14.2225  -26.7010 C   0  0  0  0  0  0  0  0  0  0  0  0
  -13.6245   15.0993  -27.2560 C   0  0  0  0  0  0  0  0  0  0  0  0
  -13.5937   16.4341  -27.0405 O   0  0  0  0  0  0  0  0  0  0  0  0
  -14.3997   17.2918  -26.3385 C   0  0  0  0  0  0  0  0  0  0  0  0
  -14.9436   18.4548  -27.0627 C   0  0  0  0  0  0  0  0  0  0  0  0
  -14.7744   19.7933  -26.4261 C   0  0  0  0  0  0  0  0  0  0  0  0
  -14.8789   19.8322  -25.0101 N   0  0  0  0  0  0  0  0  0  0  0  0
  -14.7546   18.5812  -24.3365 C   0  0  0  0  0  0  0  0  0  0  0  0
  -13.7177   17.7251  -25.0561 C   0  0  0  0  0  0  0  0  0  0  0  0
  -12.6622   14.5522  -28.1088 C   0  0  0  0  0  0  0  0  0  0  0  0
  -11.7520   15.4127  -28.6696 C   0  0  0  0  0  0  0  0  0  0  0  0
  -11.7578   16.8012  -28.4145 N   0  0  0  0  0  0  0  0  0  0  0  0
  -10.9968   17.6631  -29.2257 C   0  0  0  0  0  0  0  0  0  0  0  0
  -10.4238   18.8083  -28.7305 C   0  0  0  0  0  0  0  0  0  0  0  0
   -9.6789   19.6356  -29.5578 C   0  0  0  0  0  0  0  0  0  0  0  0
   -9.4841   19.3501  -30.8901 C   0  0  0  0  0  0  0  0  0  0  0  0
   -8.7439   20.1781  -31.6985 F   0  0  0  0  0  0  0  0  0  0  0  0
  -10.0569   18.2032  -31.3894 C   0  0  0  0  0  0  0  0  0  0  0  0
   -9.8101   17.8378  -33.0835 Cl  0  0  0  0  0  0  0  0  0  0  0  0
  -10.7943   17.3882  -30.5615 C   0  0  0  0  0  0  0  0  0  0  0  0
  -10.8197   14.8640  -29.4998 N   0  0  0  0  0  0  0  0  0  0  0  0
  -10.7572   13.5545  -29.7831 C   0  0  0  0  0  0  0  0  0  0  0  0
  -11.6572   12.7418  -29.2218 N   0  0  0  0  0  0  0  0  0  0  0  0
  -12.6110   13.2035  -28.3902 C   0  0  0  0  0  0  0  0  0  0  0  0
  -13.5504   12.3831  -27.7999 C   0  0  0  0  0  0  0  0  0  0  0  0
  1  2  1  0
  2  3  1  0
  3  4  2  0
  4  5  1  0
  5  6  1  0
  7  6  1  0
  7  8  1  0
  8  9  1  0
  9 10  1  0
 10 11  1  0
 11 12  1  0
  5 13  2  0
 13 14  1  0
 14 15  1  0
 15 16  1  0
 16 17  2  0
 17 18  1  0
 18 19  2  0
 19 20  1  0
 19 21  1  0
 21 22  1  0
 21 23  2  0
 14 24  2  0
 24 25  1  0
 25 26  2  0
 26 27  1  0
 27 28  2  0
 28  3  1  0
 12  7  1  0
 27 13  1  0
 23 16  1  0
M  END
$$$$
CHEMBL205149_diffdock_3
     RDKit          3D

 28 31  0  0  0  0  0  0  0  0999 V2000
  -16.2775   11.3515  -27.3170 C   0  0  0  0  0  0  0  0  0  0  0  0
  -16.0879   12.7244  -26.9933 O   0  0  0  0  0  0  0  0  0  0  0  0
  -14.8485   13.2818  -27.3361 C   0  0  0  0  0  0  0  0  0  0  0  0
  -14.5537   14.5934  -26.9776 C   0  0  0  0  0  0  0  0  0  0  0  0
  -13.3572   15.2079  -27.2798 C   0  0  0  0  0  0  0  0  0  0  0  0
  -13.0250   16.4775  -26.9526 O   0  0  0  0  0  0  0  0  0  0  0  0
  -13.6729   17.4717  -26.2672 C   0  0  0  0  0  0  0  0  0  0  0  0
  -14.7788   18.1598  -26.9575 C   0  0  0  0  0  0  0  0  0  0  0  0
  -14.7519   19.6514  -26.9676 C   0  0  0  0  0  0  0  0  0  0  0  0
  -14.2614   20.2779  -25.7910 N   0  0  0  0  0  0  0  0  0  0  0  0
  -13.5130   19.4494  -24.9035 C   0  0  0  0  0  0  0  0  0  0  0  0
  -12.6739   18.4710  -25.7187 C   0  0  0  0  0  0  0  0  0  0  0  0
  -12.4186   14.4466  -27.9812 C   0  0  0  0  0  0  0  0  0  0  0  0
  -11.2227   15.0449  -28.2899 C   0  0  0  0  0  0  0  0  0  0  0  0
  -10.9193   16.3748  -27.9264 N   0  0  0  0  0  0  0  0  0  0  0  0
  -10.6289   17.3225  -28.9252 C   0  0  0  0  0  0  0  0  0  0  0  0
  -10.0140   18.5158  -28.6369 C   0  0  0  0  0  0  0  0  0  0  0  0
   -9.7417   19.4276  -29.6460 C   0  0  0  0  0  0  0  0  0  0  0  0
  -10.0703   19.1809  -30.9596 C   0  0  0  0  0  0  0  0  0  0  0  0
   -9.7947   20.0927  -31.9495 F   0  0  0  0  0  0  0  0  0  0  0  0
  -10.6866   17.9860  -31.2518 C   0  0  0  0  0  0  0  0  0  0  0  0
  -11.1050   17.6699  -32.9220 Cl  0  0  0  0  0  0  0  0  0  0  0  0
  -10.9530   17.0873  -30.2445 C   0  0  0  0  0  0  0  0  0  0  0  0
  -10.3175   14.2895  -28.9750 N   0  0  0  0  0  0  0  0  0  0  0  0
  -10.5413   13.0210  -29.3491 C   0  0  0  0  0  0  0  0  0  0  0  0
  -11.7151   12.4659  -29.0340 N   0  0  0  0  0  0  0  0  0  0  0  0
  -12.6635   13.1434  -28.3589 C   0  0  0  0  0  0  0  0  0  0  0  0
  -13.8826   12.5907  -28.0234 C   0  0  0  0  0  0  0  0  0  0  0  0
  1  2  1  0
  2  3  1  0
  3  4  2  0
  4  5  1  0
  5  6  1  0
  7  6  1  0
  7  8  1  0
  8  9  1  0
  9 10  1  0
 10 11  1  0
 11 12  1  0
  5 13  2  0
 13 14  1  0
 14 15  1  0
 15 16  1  0
 16 17  2  0
 17 18  1  0
 18 19  2  0
 19 20  1  0
 19 21  1  0
 21 22  1  0
 21 23  2  0
 14 24  2  0
 24 25  1  0
 25 26  2  0
 26 27  1  0
 27 28  2  0
 28  3  1  0
 12  7  1  0
 27 13  1  0
 23 16  1  0
M  END
$$$$
CHEMBL205149_diffdock_4
     RDKit          3D

 28 31  0  0  0  0  0  0  0  0999 V2000
  -15.6106   10.6915  -27.0795 C   0  0  0  0  0  0  0  0  0  0  0  0
  -15.5522   12.0593  -26.6904 O   0  0  0  0  0  0  0  0  0  0  0  0
  -14.5129   12.8216  -27.2406 C   0  0  0  0  0  0  0  0  0  0  0  0
  -14.3712   14.1601  -26.8879 C   0  0  0  0  0  0  0  0  0  0  0  0
  -13.3746   14.9711  -27.3875 C   0  0  0  0  0  0  0  0  0  0  0  0
  -13.1962   16.2747  -27.0747 O   0  0  0  0  0  0  0  0  0  0  0  0
  -13.7343   17.0936  -26.1166 C   0  0  0  0  0  0  0  0  0  0  0  0
  -15.0416   17.7090  -26.4088 C   0  0  0  0  0  0  0  0  0  0  0  0
  -15.1592   19.1831  -26.2125 C   0  0  0  0  0  0  0  0  0  0  0  0
  -14.4410   19.7292  -25.1155 N   0  0  0  0  0  0  0  0  0  0  0  0
  -13.4127   18.9074  -24.5664 C   0  0  0  0  0  0  0  0  0  0  0  0
  -12.7260   18.1433  -25.6936 C   0  0  0  0  0  0  0  0  0  0  0  0
  -12.4816   14.3870  -28.2897 C   0  0  0  0  0  0  0  0  0  0  0  0
  -11.4842   15.1820  -28.7964 C   0  0  0  0  0  0  0  0  0  0  0  0
  -11.3362   16.5399  -28.4396 N   0  0  0  0  0  0  0  0  0  0  0  0
  -10.5240   17.3823  -29.2210 C   0  0  0  0  0  0  0  0  0  0  0  0
   -9.7693   18.3846  -28.6633 C   0  0  0  0  0  0  0  0  0  0  0  0
   -8.9788   19.1967  -29.4628 C   0  0  0  0  0  0  0  0  0  0  0  0
   -8.9167   19.0368  -30.8286 C   0  0  0  0  0  0  0  0  0  0  0  0
   -8.1295   19.8482  -31.6089 F   0  0  0  0  0  0  0  0  0  0  0  0
   -9.6718   18.0333  -31.3905 C   0  0  0  0  0  0  0  0  0  0  0  0
   -9.5940   17.8278  -33.1272 Cl  0  0  0  0  0  0  0  0  0  0  0  0
  -10.4532   17.2323  -30.5898 C   0  0  0  0  0  0  0  0  0  0  0  0
  -10.6211   14.5980  -29.6758 N   0  0  0  0  0  0  0  0  0  0  0  0
  -10.7043   13.3143  -30.0556 C   0  0  0  0  0  0  0  0  0  0  0  0
  -11.6861   12.5655  -29.5450 N   0  0  0  0  0  0  0  0  0  0  0  0
  -12.5802   13.0656  -28.6704 C   0  0  0  0  0  0  0  0  0  0  0  0
  -13.6021   12.3113  -28.1310 C   0  0  0  0  0  0  0  0  0  0  0  0
  1  2  1  0
  2  3  1  0
  3  4  2  0
  4  5  1  0
  5  6  1  0
  7  6  1  0
  7  8  1  0
  8  9  1  0
  9 10  1  0
 10 11  1  0
 11 12  1  0
  5 13  2  0
 13 14  1  0
 14 15  1  0
 15 16  1  0
 16 17  2  0
 17 18  1  0
 18 19  2  0
 19 20  1  0
 19 21  1  0
 21 22  1  0
 21 23  2  0
 14 24  2  0
 24 25  1  0
 25 26  2  0
 26 27  1  0
 27 28  2  0
 28  3  1  0
 12  7  1  0
 27 13  1  0
 23 16  1  0
M  END
$$$$
CHEMBL205149_diffdock_5
     RDKit          3D

 28 31  0  0  0  0  0  0  0  0999 V2000
  -15.2692   10.6642  -26.3389 C   0  0  0  0  0  0  0  0  0  0  0  0
  -15.3118   12.0457  -25.9994 O   0  0  0  0  0  0  0  0  0  0  0  0
  -14.3830   12.8759  -26.6414 C   0  0  0  0  0  0  0  0  0  0  0  0
  -14.4011   14.2478  -26.4101 C   0  0  0  0  0  0  0  0  0  0  0  0
  -13.5198   15.1254  -27.0048 C   0  0  0  0  0  0  0  0  0  0  0  0
  -13.4978   16.4637  -26.8110 O   0  0  0  0  0  0  0  0  0  0  0  0
  -14.3037   17.3261  -26.1147 C   0  0  0  0  0  0  0  0  0  0  0  0
  -14.6679   18.5934  -26.7736 C   0  0  0  0  0  0  0  0  0  0  0  0
  -14.4614   19.8492  -25.9953 C   0  0  0  0  0  0  0  0  0  0  0  0
  -14.7180   19.7722  -24.6004 N   0  0  0  0  0  0  0  0  0  0  0  0
  -14.7711   18.4603  -24.0431 C   0  0  0  0  0  0  0  0  0  0  0  0
  -13.7343   17.5801  -24.7331 C   0  0  0  0  0  0  0  0  0  0  0  0
  -12.5765   14.5754  -27.8767 C   0  0  0  0  0  0  0  0  0  0  0  0
  -11.6926   15.4366  -28.4770 C   0  0  0  0  0  0  0  0  0  0  0  0
  -11.7067   16.8288  -28.2434 N   0  0  0  0  0  0  0  0  0  0  0  0
  -10.9779   17.6858  -29.0887 C   0  0  0  0  0  0  0  0  0  0  0  0
  -10.5307   18.9135  -28.6669 C   0  0  0  0  0  0  0  0  0  0  0  0
   -9.8142   19.7334  -29.5261 C   0  0  0  0  0  0  0  0  0  0  0  0
   -9.5244   19.3590  -30.8185 C   0  0  0  0  0  0  0  0  0  0  0  0
   -8.8138   20.1808  -31.6592 F   0  0  0  0  0  0  0  0  0  0  0  0
   -9.9712   18.1294  -31.2443 C   0  0  0  0  0  0  0  0  0  0  0  0
   -9.6034   17.6509  -32.8875 Cl  0  0  0  0  0  0  0  0  0  0  0  0
  -10.6813   17.3225  -30.3852 C   0  0  0  0  0  0  0  0  0  0  0  0
  -10.7786   14.8850  -29.3254 N   0  0  0  0  0  0  0  0  0  0  0  0
  -10.7096   13.5719  -29.5900 C   0  0  0  0  0  0  0  0  0  0  0  0
  -11.5837   12.7586  -28.9902 N   0  0  0  0  0  0  0  0  0  0  0  0
  -12.5182   13.2230  -28.1386 C   0  0  0  0  0  0  0  0  0  0  0  0
  -13.4309   12.4019  -27.5085 C   0  0  0  0  0  0  0  0  0  0  0  0
  1  2  1  0
  2  3  1  0
  3  4  2  0
  4  5  1  0
  5  6  1  0
  7  6  1  0
  7  8  1  0
  8  9  1  0
  9 10  1  0
 10 11  1  0
 11 12  1  0
  5 13  2  0
 13 14  1  0
 14 15  1  0
 15 16  1  0
 16 17  2  0
 17 18  1  0
 18 19  2  0
 19 20  1  0
 19 21  1  0
 21 22  1  0
 21 23  2  0
 14 24  2  0
 24 25  1  0
 25 26  2  0
 26 27  1  0
 27 28  2  0
 28  3  1  0
 12  7  1  0
 27 13  1  0
 23 16  1  0
M  END
$$$$
CHEMBL205149_diffdock_6
     RDKit          3D

 28 31  0  0  0  0  0  0  0  0999 V2000
  -15.3508   10.8234  -26.1955 C   0  0  0  0  0  0  0  0  0  0  0  0
  -15.3386   12.2303  -25.9809 O   0  0  0  0  0  0  0  0  0  0  0  0
  -14.3203   12.9510  -26.6194 C   0  0  0  0  0  0  0  0  0  0  0  0
  -14.2535   14.3335  -26.4774 C   0  0  0  0  0  0  0  0  0  0  0  0
  -13.2817   15.1078  -27.0746 C   0  0  0  0  0  0  0  0  0  0  0  0
  -13.1754   16.4516  -26.9656 O   0  0  0  0  0  0  0  0  0  0  0  0
  -13.9829   17.4176  -26.4243 C   0  0  0  0  0  0  0  0  0  0  0  0
  -13.8336   18.7909  -26.9387 C   0  0  0  0  0  0  0  0  0  0  0  0
  -13.6634   19.8798  -25.9333 C   0  0  0  0  0  0  0  0  0  0  0  0
  -14.3985   19.7396  -24.7261 N   0  0  0  0  0  0  0  0  0  0  0  0
  -14.9037   18.4354  -24.4462 C   0  0  0  0  0  0  0  0  0  0  0  0
  -13.8905   17.3948  -24.9115 C   0  0  0  0  0  0  0  0  0  0  0  0
  -12.3344   14.4380  -27.8534 C   0  0  0  0  0  0  0  0  0  0  0  0
  -11.3608   15.1955  -28.4550 C   0  0  0  0  0  0  0  0  0  0  0  0
  -11.2889   16.5981  -28.3118 N   0  0  0  0  0  0  0  0  0  0  0  0
  -10.4377   17.3424  -29.1494 C   0  0  0  0  0  0  0  0  0  0  0  0
   -9.7077   18.4069  -28.6812 C   0  0  0  0  0  0  0  0  0  0  0  0
   -8.8775   19.1189  -29.5341 C   0  0  0  0  0  0  0  0  0  0  0  0
   -8.7505   18.7955  -30.8660 C   0  0  0  0  0  0  0  0  0  0  0  0
   -7.9245   19.5091  -31.7000 F   0  0  0  0  0  0  0  0  0  0  0  0
   -9.4807   17.7293  -31.3383 C   0  0  0  0  0  0  0  0  0  0  0  0
   -9.3204   17.3159  -33.0317 Cl  0  0  0  0  0  0  0  0  0  0  0  0
  -10.3018   17.0286  -30.4850 C   0  0  0  0  0  0  0  0  0  0  0  0
  -10.4441   14.5277  -29.2120 N   0  0  0  0  0  0  0  0  0  0  0  0
  -10.4542   13.1980  -29.3879 C   0  0  0  0  0  0  0  0  0  0  0  0
  -11.4145   12.4876  -28.7893 N   0  0  0  0  0  0  0  0  0  0  0  0
  -12.3580   13.0702  -28.0247 C   0  0  0  0  0  0  0  0  0  0  0  0
  -13.3590   12.3567  -27.3977 C   0  0  0  0  0  0  0  0  0  0  0  0
  1  2  1  0
  2  3  1  0
  3  4  2  0
  4  5  1  0
  5  6  1  0
  7  6  1  0
  7  8  1  0
  8  9  1  0
  9 10  1  0
 10 11  1  0
 11 12  1  0
  5 13  2  0
 13 14  1  0
 14 15  1  0
 15 16  1  0
 16 17  2  0
 17 18  1  0
 18 19  2  0
 19 20  1  0
 19 21  1  0
 21 22  1  0
 21 23  2  0
 14 24  2  0
 24 25  1  0
 25 26  2  0
 26 27  1  0
 27 28  2  0
 28  3  1  0
 12  7  1  0
 27 13  1  0
 23 16  1  0
M  END
$$$$
CHEMBL205149_diffdock_7
     RDKit          3D

 28 31  0  0  0  0  0  0  0  0999 V2000
  -15.4069   10.7577  -26.3896 C   0  0  0  0  0  0  0  0  0  0  0  0
  -15.3470   12.1472  -26.0875 O   0  0  0  0  0  0  0  0  0  0  0  0
  -14.3278   12.8791  -26.7118 C   0  0  0  0  0  0  0  0  0  0  0  0
  -14.2257   14.2500  -26.4976 C   0  0  0  0  0  0  0  0  0  0  0  0
  -13.2508   15.0341  -27.0766 C   0  0  0  0  0  0  0  0  0  0  0  0
  -13.1109   16.3674  -26.8984 O   0  0  0  0  0  0  0  0  0  0  0  0
  -13.5915   17.2463  -25.9632 C   0  0  0  0  0  0  0  0  0  0  0  0
  -14.3560   18.4069  -26.4550 C   0  0  0  0  0  0  0  0  0  0  0  0
  -13.9515   19.7515  -25.9512 C   0  0  0  0  0  0  0  0  0  0  0  0
  -13.5225   19.8117  -24.5985 N   0  0  0  0  0  0  0  0  0  0  0  0
  -13.1672   18.5685  -23.9964 C   0  0  0  0  0  0  0  0  0  0  0  0
  -12.4786   17.6877  -25.0336 C   0  0  0  0  0  0  0  0  0  0  0  0
  -12.3380   14.3870  -27.9136 C   0  0  0  0  0  0  0  0  0  0  0  0
  -11.3618   15.1545  -28.4980 C   0  0  0  0  0  0  0  0  0  0  0  0
  -11.2540   16.5454  -28.2817 N   0  0  0  0  0  0  0  0  0  0  0  0
  -10.3790   17.3095  -29.0758 C   0  0  0  0  0  0  0  0  0  0  0  0
   -9.5917   18.2996  -28.5419 C   0  0  0  0  0  0  0  0  0  0  0  0
   -8.7395   19.0336  -29.3534 C   0  0  0  0  0  0  0  0  0  0  0  0
   -8.6465   18.8060  -30.7077 C   0  0  0  0  0  0  0  0  0  0  0  0
   -7.7981   19.5404  -31.5001 F   0  0  0  0  0  0  0  0  0  0  0  0
   -9.4341   17.8145  -31.2458 C   0  0  0  0  0  0  0  0  0  0  0  0
   -9.3172   17.5230  -32.9679 Cl  0  0  0  0  0  0  0  0  0  0  0  0
  -10.2768   17.0912  -30.4333 C   0  0  0  0  0  0  0  0  0  0  0  0
  -10.4790   14.5088  -29.3124 N   0  0  0  0  0  0  0  0  0  0  0  0
  -10.5241   13.1912  -29.5591 C   0  0  0  0  0  0  0  0  0  0  0  0
  -11.4861   12.4705  -28.9755 N   0  0  0  0  0  0  0  0  0  0  0  0
  -12.3974   13.0312  -28.1574 C   0  0  0  0  0  0  0  0  0  0  0  0
  -13.3994   12.3069  -27.5447 C   0  0  0  0  0  0  0  0  0  0  0  0
  1  2  1  0
  2  3  1  0
  3  4  2  0
  4  5  1  0
  5  6  1  0
  7  6  1  0
  7  8  1  0
  8  9  1  0
  9 10  1  0
 10 11  1  0
 11 12  1  0
  5 13  2  0
 13 14  1  0
 14 15  1  0
 15 16  1  0
 16 17  2  0
 17 18  1  0
 18 19  2  0
 19 20  1  0
 19 21  1  0
 21 22  1  0
 21 23  2  0
 14 24  2  0
 24 25  1  0
 25 26  2  0
 26 27  1  0
 27 28  2  0
 28  3  1  0
 12  7  1  0
 27 13  1  0
 23 16  1  0
M  END
$$$$
CHEMBL205149_diffdock_8
     RDKit          3D

 28 31  0  0  0  0  0  0  0  0999 V2000
  -15.9559   11.3462  -26.9174 C   0  0  0  0  0  0  0  0  0  0  0  0
  -15.9235   12.7391  -26.6265 O   0  0  0  0  0  0  0  0  0  0  0  0
  -14.8837   13.4753  -27.2104 C   0  0  0  0  0  0  0  0  0  0  0  0
  -14.8108   14.8508  -27.0136 C   0  0  0  0  0  0  0  0  0  0  0  0
  -13.8182   15.6394  -27.5553 C   0  0  0  0  0  0  0  0  0  0  0  0
  -13.7051   16.9771  -27.3920 O   0  0  0  0  0  0  0  0  0  0  0  0
  -14.3806   17.8910  -26.6259 C   0  0  0  0  0  0  0  0  0  0  0  0
  -14.2975   19.3061  -27.0300 C   0  0  0  0  0  0  0  0  0  0  0  0
  -13.9250   20.2943  -25.9764 C   0  0  0  0  0  0  0  0  0  0  0  0
  -14.4325   20.0437  -24.6737 N   0  0  0  0  0  0  0  0  0  0  0  0
  -14.9064   18.7210  -24.4280 C   0  0  0  0  0  0  0  0  0  0  0  0
  -14.0166   17.7248  -25.1640 C   0  0  0  0  0  0  0  0  0  0  0  0
  -12.8557   14.9922  -28.3346 C   0  0  0  0  0  0  0  0  0  0  0  0
  -11.8614   15.7641  -28.8813 C   0  0  0  0  0  0  0  0  0  0  0  0
  -11.7831   17.1596  -28.6825 N   0  0  0  0  0  0  0  0  0  0  0  0
  -10.7718   17.9001  -29.3220 C   0  0  0  0  0  0  0  0  0  0  0  0
  -10.7894   19.2725  -29.3580 C   0  0  0  0  0  0  0  0  0  0  0  0
   -9.7760   19.9716  -29.9967 C   0  0  0  0  0  0  0  0  0  0  0  0
   -8.7247   19.3313  -30.6126 C   0  0  0  0  0  0  0  0  0  0  0  0
   -7.7272   20.0359  -31.2416 F   0  0  0  0  0  0  0  0  0  0  0  0
   -8.7041   17.9560  -30.5782 C   0  0  0  0  0  0  0  0  0  0  0  0
   -7.3677   17.1395  -31.3605 Cl  0  0  0  0  0  0  0  0  0  0  0  0
   -9.7136   17.2706  -29.9424 C   0  0  0  0  0  0  0  0  0  0  0  0
  -10.9300   15.1183  -29.6396 N   0  0  0  0  0  0  0  0  0  0  0  0
  -10.9451   13.7965  -29.8668 C   0  0  0  0  0  0  0  0  0  0  0  0
  -11.9258   13.0715  -29.3209 N   0  0  0  0  0  0  0  0  0  0  0  0
  -12.8847   13.6321  -28.5591 C   0  0  0  0  0  0  0  0  0  0  0  0
  -13.9068   12.9034  -27.9860 C   0  0  0  0  0  0  0  0  0  0  0  0
  1  2  1  0
  2  3  1  0
  3  4  2  0
  4  5  1  0
  5  6  1  0
  7  6  1  0
  7  8  1  0
  8  9  1  0
  9 10  1  0
 10 11  1  0
 11 12  1  0
  5 13  2  0
 13 14  1  0
 14 15  1  0
 15 16  1  0
 16 17  2  0
 17 18  1  0
 18 19  2  0
 19 20  1  0
 19 21  1  0
 21 22  1  0
 21 23  2  0
 14 24  2  0
 24 25  1  0
 25 26  2  0
 26 27  1  0
 27 28  2  0
 28  3  1  0
 12  7  1  0
 27 13  1  0
 23 16  1  0
M  END
$$$$
CHEMBL205149_diffdock_9
     RDKit          3D

 28 31  0  0  0  0  0  0  0  0999 V2000
  -15.4675   10.6021  -26.8631 C   0  0  0  0  0  0  0  0  0  0  0  0
  -15.6224   11.9773  -26.5307 O   0  0  0  0  0  0  0  0  0  0  0  0
  -14.7140   12.8683  -27.1181 C   0  0  0  0  0  0  0  0  0  0  0  0
  -14.8303   14.2346  -26.8827 C   0  0  0  0  0  0  0  0  0  0  0  0
  -13.9748   15.1697  -27.4253 C   0  0  0  0  0  0  0  0  0  0  0  0
  -14.0470   16.5053  -27.2254 O   0  0  0  0  0  0  0  0  0  0  0  0
  -14.6370   17.2811  -26.2620 C   0  0  0  0  0  0  0  0  0  0  0  0
  -15.1075   18.6188  -26.6645 C   0  0  0  0  0  0  0  0  0  0  0  0
  -14.6829   19.7726  -25.8195 C   0  0  0  0  0  0  0  0  0  0  0  0
  -14.6030   19.5309  -24.4222 N   0  0  0  0  0  0  0  0  0  0  0  0
  -14.5632   18.1623  -24.0227 C   0  0  0  0  0  0  0  0  0  0  0  0
  -13.7481   17.3674  -25.0373 C   0  0  0  0  0  0  0  0  0  0  0  0
  -12.9533   14.6858  -28.2468 C   0  0  0  0  0  0  0  0  0  0  0  0
  -12.0938   15.6047  -28.7949 C   0  0  0  0  0  0  0  0  0  0  0  0
  -12.2076   16.9916  -28.5570 N   0  0  0  0  0  0  0  0  0  0  0  0
  -11.3788   17.8897  -29.2546 C   0  0  0  0  0  0  0  0  0  0  0  0
  -10.9840   19.0863  -28.7094 C   0  0  0  0  0  0  0  0  0  0  0  0
  -10.1658   19.9483  -29.4244 C   0  0  0  0  0  0  0  0  0  0  0  0
   -9.7206   19.6475  -30.6917 C   0  0  0  0  0  0  0  0  0  0  0  0
   -8.9105   20.5103  -31.3890 F   0  0  0  0  0  0  0  0  0  0  0  0
  -10.1145   18.4491  -31.2409 C   0  0  0  0  0  0  0  0  0  0  0  0
   -9.5491   18.0643  -32.8523 Cl  0  0  0  0  0  0  0  0  0  0  0  0
  -10.9263   17.6000  -30.5244 C   0  0  0  0  0  0  0  0  0  0  0  0
  -11.1027   15.1172  -29.5946 N   0  0  0  0  0  0  0  0  0  0  0  0
  -10.9377   13.8129  -29.8602 C   0  0  0  0  0  0  0  0  0  0  0  0
  -11.7903   12.9424  -29.3119 N   0  0  0  0  0  0  0  0  0  0  0  0
  -12.7965   13.3416  -28.5104 C   0  0  0  0  0  0  0  0  0  0  0  0
  -13.6888   12.4607  -27.9340 C   0  0  0  0  0  0  0  0  0  0  0  0
  1  2  1  0
  2  3  1  0
  3  4  2  0
  4  5  1  0
  5  6  1  0
  7  6  1  0
  7  8  1  0
  8  9  1  0
  9 10  1  0
 10 11  1  0
 11 12  1  0
  5 13  2  0
 13 14  1  0
 14 15  1  0
 15 16  1  0
 16 17  2  0
 17 18  1  0
 18 19  2  0
 19 20  1  0
 19 21  1  0
 21 22  1  0
 21 23  2  0
 14 24  2  0
 24 25  1  0
 25 26  2  0
 26 27  1  0
 27 28  2  0
 28  3  1  0
 12  7  1  0
 27 13  1  0
 23 16  1  0
M  END
$$$$
CHEMBL205149_diffdock_10
     RDKit          3D

 28 31  0  0  0  0  0  0  0  0999 V2000
  -14.8782   10.7670  -26.4131 C   0  0  0  0  0  0  0  0  0  0  0  0
  -15.0356   12.1585  -26.1584 O   0  0  0  0  0  0  0  0  0  0  0  0
  -14.1362   13.0176  -26.8042 C   0  0  0  0  0  0  0  0  0  0  0  0
  -14.2480   14.3942  -26.6361 C   0  0  0  0  0  0  0  0  0  0  0  0
  -13.4008   15.2997  -27.2386 C   0  0  0  0  0  0  0  0  0  0  0  0
  -13.4691   16.6437  -27.1051 O   0  0  0  0  0  0  0  0  0  0  0  0
  -14.1799   17.4710  -26.2754 C   0  0  0  0  0  0  0  0  0  0  0  0
  -14.2907   18.8883  -26.6655 C   0  0  0  0  0  0  0  0  0  0  0  0
  -13.9491   19.9077  -25.6314 C   0  0  0  0  0  0  0  0  0  0  0  0
  -14.3183   19.5949  -24.2960 N   0  0  0  0  0  0  0  0  0  0  0  0
  -14.6179   18.2257  -24.0315 C   0  0  0  0  0  0  0  0  0  0  0  0
  -13.6829   17.3409  -24.8494 C   0  0  0  0  0  0  0  0  0  0  0  0
  -12.3926   14.7736  -28.0507 C   0  0  0  0  0  0  0  0  0  0  0  0
  -11.5415   15.6627  -28.6579 C   0  0  0  0  0  0  0  0  0  0  0  0
  -11.6508   17.0600  -28.4884 N   0  0  0  0  0  0  0  0  0  0  0  0
  -10.9156   17.9237  -29.3212 C   0  0  0  0  0  0  0  0  0  0  0  0
  -10.3723   19.0947  -28.8537 C   0  0  0  0  0  0  0  0  0  0  0  0
   -9.6524   19.9230  -29.7018 C   0  0  0  0  0  0  0  0  0  0  0  0
   -9.4539   19.6131  -31.0281 C   0  0  0  0  0  0  0  0  0  0  0  0
   -8.7387   20.4425  -31.8574 F   0  0  0  0  0  0  0  0  0  0  0  0
   -9.9971   18.4404  -31.4998 C   0  0  0  0  0  0  0  0  0  0  0  0
   -9.7455   18.0440  -33.1862 Cl  0  0  0  0  0  0  0  0  0  0  0  0
  -10.7098   17.6246  -30.6513 C   0  0  0  0  0  0  0  0  0  0  0  0
  -10.5635   15.1342  -29.4476 N   0  0  0  0  0  0  0  0  0  0  0  0
  -10.4033   13.8180  -29.6497 C   0  0  0  0  0  0  0  0  0  0  0  0
  -11.2475   12.9773  -29.0449 N   0  0  0  0  0  0  0  0  0  0  0  0
  -12.2407   13.4177  -28.2487 C   0  0  0  0  0  0  0  0  0  0  0  0
  -13.1242   12.5682  -27.6147 C   0  0  0  0  0  0  0  0  0  0  0  0
  1  2  1  0
  2  3  1  0
  3  4  2  0
  4  5  1  0
  5  6  1  0
  7  6  1  0
  7  8  1  0
  8  9  1  0
  9 10  1  0
 10 11  1  0
 11 12  1  0
  5 13  2  0
 13 14  1  0
 14 15  1  0
 15 16  1  0
 16 17  2  0
 17 18  1  0
 18 19  2  0
 19 20  1  0
 19 21  1  0
 21 22  1  0
 21 23  2  0
 14 24  2  0
 24 25  1  0
 25 26  2  0
 26 27  1  0
 27 28  2  0
 28  3  1  0
 12  7  1  0
 27 13  1  0
 23 16  1  0
M  END
$$$$
CHEMBL5198812_diffdock_1
     RDKit          3D

 38 43  0  0  0  0  0  0  0  0999 V2000
  -20.1726    3.2868  -24.1146 C   0  0  0  0  0  0  0  0  0  0  0  0
  -19.6712    4.6566  -24.1861 N   0  0  2  0  0  4  0  0  0  0  0  0
  -19.8605    5.1511  -25.5295 C   0  0  0  0  0  0  0  0  0  0  0  0
  -19.4475    6.6067  -25.5510 C   0  0  0  0  0  0  0  0  0  0  0  0
  -17.9701    6.6711  -25.2447 C   0  0  1  0  0  0  0  0  0  0  0  0
  -17.4596    8.0752  -25.3338 C   0  0  0  0  0  0  0  0  0  0  0  0
  -17.6993    8.9587  -24.3034 C   0  0  0  0  0  0  0  0  0  0  0  0
  -17.2399   10.2676  -24.3593 C   0  0  0  0  0  0  0  0  0  0  0  0
  -16.5275   10.7382  -25.4420 C   0  0  0  0  0  0  0  0  0  0  0  0
  -16.0576   12.1238  -25.4783 C   0  0  0  0  0  0  0  0  0  0  0  0
  -16.6850   13.0870  -24.7088 C   0  0  0  0  0  0  0  0  0  0  0  0
  -16.3149   14.4039  -24.6758 C   0  0  0  0  0  0  0  0  0  0  0  0
  -15.2569   14.8169  -25.4467 C   0  0  0  0  0  0  0  0  0  0  0  0
  -14.5931   13.8970  -26.2355 C   0  0  0  0  0  0  0  0  0  0  0  0
  -14.9985   12.5575  -26.2452 C   0  0  0  0  0  0  0  0  0  0  0  0
  -13.5225   14.5680  -26.9539 C   0  0  0  0  0  0  0  0  0  0  0  0
  -12.6008   13.9796  -27.5604 O   0  0  0  0  0  0  0  0  0  0  0  0
  -13.7173   15.9346  -26.8391 N   0  0  2  0  0  4  0  0  0  0  0  0
  -12.5739   16.7730  -26.8331 C   0  0  1  0  0  0  0  0  0  0  0  0
  -11.5690   16.6207  -27.8613 C   0  0  0  0  0  0  0  0  0  0  0  0
  -11.9122   16.3892  -29.0792 O   0  0  0  0  0  0  0  0  0  0  0  0
  -10.1585   16.6970  -27.7015 N   0  0  0  0  0  0  0  0  0  0  0  0
   -9.2438   16.3271  -28.7639 C   0  0  0  0  0  0  0  0  0  0  0  0
   -8.3066   17.0752  -29.3314 N   0  0  0  0  0  0  0  0  0  0  0  0
   -7.5751   16.5826  -30.2747 C   0  0  0  0  0  0  0  0  0  0  0  0
   -7.8050   15.2846  -30.6531 C   0  0  0  0  0  0  0  0  0  0  0  0
   -9.0878   14.8493  -29.6028 S   0  0  0  0  0  0  0  0  0  0  0  0
  -12.8955   18.2005  -26.4661 C   0  0  0  0  0  0  0  0  0  0  0  0
  -14.0522   18.7727  -27.0080 C   0  0  0  0  0  0  0  0  0  0  0  0
  -14.3936   20.0828  -26.7195 C   0  0  0  0  0  0  0  0  0  0  0  0
  -13.5626   20.7972  -25.8874 C   0  0  0  0  0  0  0  0  0  0  0  0
  -12.4015   20.2460  -25.3336 C   0  0  0  0  0  0  0  0  0  0  0  0
  -12.0921   18.9414  -25.6417 C   0  0  0  0  0  0  0  0  0  0  0  0
  -14.5686   16.1124  -25.6779 C   0  0  0  0  0  0  0  0  0  0  0  0
  -16.2875    9.8546  -26.4726 C   0  0  0  0  0  0  0  0  0  0  0  0
  -16.7470    8.5498  -26.4142 C   0  0  0  0  0  0  0  0  0  0  0  0
  -17.7550    6.0924  -23.8712 C   0  0  0  0  0  0  0  0  0  0  0  0
  -18.2395    4.6585  -23.8962 C   0  0  0  0  0  0  0  0  0  0  0  0
  2  1  1  6
  2  3  1  0
  3  4  1  0
  4  5  1  0
  5  6  1  1
  6  7  2  0
  7  8  1  0
  8  9  2  0
  9 10  1  0
 10 11  2  0
 11 12  1  0
 12 13  2  0
 13 14  1  0
 14 15  2  0
 14 16  1  0
 16 17  2  0
 16 18  1  0
 18 19  1  0
 19 20  1  6
 20 21  2  0
 20 22  1  0
 22 23  1  0
 23 24  2  0
 24 25  1  0
 25 26  2  0
 26 27  1  0
 19 28  1  0
 28 29  2  0
 29 30  1  0
 30 31  2  0
 31 32  1  0
 32 33  2  0
 18 34  1  1
  9 35  1  0
 35 36  2  0
  5 37  1  0
 37 38  1  0
 38  2  1  0
 36  6  1  0
 15 10  1  0
 27 23  1  0
 33 28  1  0
 34 13  1  0
M  CHG  2   2   1  18   1
M  END
$$$$
CHEMBL5198812_diffdock_2
     RDKit          3D

 38 43  0  0  0  0  0  0  0  0999 V2000
  -19.5550    2.7236  -25.1466 C   0  0  0  0  0  0  0  0  0  0  0  0
  -18.9261    4.0301  -25.3216 N   0  0  2  0  0  4  0  0  0  0  0  0
  -18.6129    4.5730  -24.0207 C   0  0  0  0  0  0  0  0  0  0  0  0
  -17.8556    5.8665  -24.2275 C   0  0  0  0  0  0  0  0  0  0  0  0
  -18.7833    6.8386  -24.9167 C   0  0  1  0  0  0  0  0  0  0  0  0
  -18.1382    8.1793  -25.0799 C   0  0  0  0  0  0  0  0  0  0  0  0
  -18.2993    9.1409  -24.1058 C   0  0  0  0  0  0  0  0  0  0  0  0
  -17.7146   10.3939  -24.2311 C   0  0  0  0  0  0  0  0  0  0  0  0
  -16.9514   10.7291  -25.3294 C   0  0  0  0  0  0  0  0  0  0  0  0
  -16.3490   12.0584  -25.4394 C   0  0  0  0  0  0  0  0  0  0  0  0
  -16.8261   13.0999  -24.6641 C   0  0  0  0  0  0  0  0  0  0  0  0
  -16.3252   14.3728  -24.6966 C   0  0  0  0  0  0  0  0  0  0  0  0
  -15.2835   14.6562  -25.5444 C   0  0  0  0  0  0  0  0  0  0  0  0
  -14.7672   13.6535  -26.3426 C   0  0  0  0  0  0  0  0  0  0  0  0
  -15.3039   12.3623  -26.2840 C   0  0  0  0  0  0  0  0  0  0  0  0
  -13.6838   14.1935  -27.1472 C   0  0  0  0  0  0  0  0  0  0  0  0
  -12.8666   13.4990  -27.7902 O   0  0  0  0  0  0  0  0  0  0  0  0
  -13.7336   15.5753  -27.0647 N   0  0  2  0  0  4  0  0  0  0  0  0
  -12.5143   16.2931  -27.1565 C   0  0  1  0  0  0  0  0  0  0  0  0
  -11.6439   16.0837  -28.2917 C   0  0  0  0  0  0  0  0  0  0  0  0
  -12.1278   15.7133  -29.4246 O   0  0  0  0  0  0  0  0  0  0  0  0
  -10.2318   16.2418  -28.3318 N   0  0  0  0  0  0  0  0  0  0  0  0
   -9.4744   16.0747  -29.5568 C   0  0  0  0  0  0  0  0  0  0  0  0
   -8.1675   16.2174  -29.7343 N   0  0  0  0  0  0  0  0  0  0  0  0
   -7.6538   16.0305  -30.9043 C   0  0  0  0  0  0  0  0  0  0  0  0
   -8.4987   15.6867  -31.9282 C   0  0  0  0  0  0  0  0  0  0  0  0
  -10.0107   15.6545  -31.1214 S   0  0  0  0  0  0  0  0  0  0  0  0
  -12.6445   17.7291  -26.7126 C   0  0  0  0  0  0  0  0  0  0  0  0
  -13.4881   18.5694  -27.4481 C   0  0  0  0  0  0  0  0  0  0  0  0
  -13.6386   19.9002  -27.0984 C   0  0  0  0  0  0  0  0  0  0  0  0
  -12.9356   20.3644  -26.0106 C   0  0  0  0  0  0  0  0  0  0  0  0
  -12.0869   19.5428  -25.2600 C   0  0  0  0  0  0  0  0  0  0  0  0
  -11.9604   18.2254  -25.6356 C   0  0  0  0  0  0  0  0  0  0  0  0
  -14.4859   15.8686  -25.8594 C   0  0  0  0  0  0  0  0  0  0  0  0
  -16.7902    9.7673  -26.3038 C   0  0  0  0  0  0  0  0  0  0  0  0
  -17.3745    8.5186  -26.1763 C   0  0  0  0  0  0  0  0  0  0  0  0
  -19.1706    6.2476  -26.2464 C   0  0  0  0  0  0  0  0  0  0  0  0
  -19.8693    4.9319  -25.9779 C   0  0  0  0  0  0  0  0  0  0  0  0
  2  1  1  1
  2  3  1  0
  3  4  1  0
  4  5  1  0
  5  6  1  6
  6  7  2  0
  7  8  1  0
  8  9  2  0
  9 10  1  0
 10 11  2  0
 11 12  1  0
 12 13  2  0
 13 14  1  0
 14 15  2  0
 14 16  1  0
 16 17  2  0
 16 18  1  0
 18 19  1  0
 19 20  1  6
 20 21  2  0
 20 22  1  0
 22 23  1  0
 23 24  2  0
 24 25  1  0
 25 26  2  0
 26 27  1  0
 19 28  1  0
 28 29  2  0
 29 30  1  0
 30 31  2  0
 31 32  1  0
 32 33  2  0
 18 34  1  1
  9 35  1  0
 35 36  2  0
  5 37  1  0
 37 38  1  0
 38  2  1  0
 36  6  1  0
 15 10  1  0
 27 23  1  0
 33 28  1  0
 34 13  1  0
M  CHG  2   2   1  18   1
M  END
$$$$
CHEMBL5198812_diffdock_3
     RDKit          3D

 38 43  0  0  0  0  0  0  0  0999 V2000
  -20.1122    3.4451  -25.1838 C   0  0  0  0  0  0  0  0  0  0  0  0
  -19.6550    4.8310  -25.1269 N   0  0  2  0  0  4  0  0  0  0  0  0
  -19.5058    5.3268  -26.4749 C   0  0  0  0  0  0  0  0  0  0  0  0
  -19.1499    6.7952  -26.3928 C   0  0  0  0  0  0  0  0  0  0  0  0
  -17.8054    6.9063  -25.7140 C   0  0  1  0  0  0  0  0  0  0  0  0
  -17.3361    8.3269  -25.6719 C   0  0  0  0  0  0  0  0  0  0  0  0
  -16.0774    8.6472  -26.1332 C   0  0  0  0  0  0  0  0  0  0  0  0
  -15.6145    9.9557  -26.1046 C   0  0  0  0  0  0  0  0  0  0  0  0
  -16.3895   10.9863  -25.6162 C   0  0  0  0  0  0  0  0  0  0  0  0
  -15.8765   12.3569  -25.5935 C   0  0  0  0  0  0  0  0  0  0  0  0
  -16.3374   13.2519  -24.6449 C   0  0  0  0  0  0  0  0  0  0  0  0
  -15.9149   14.5495  -24.5447 C   0  0  0  0  0  0  0  0  0  0  0  0
  -14.9748   15.0131  -25.4310 C   0  0  0  0  0  0  0  0  0  0  0  0
  -14.4793   14.1622  -26.4003 C   0  0  0  0  0  0  0  0  0  0  0  0
  -14.9339   12.8407  -26.4741 C   0  0  0  0  0  0  0  0  0  0  0  0
  -13.5084   14.8768  -27.2123 C   0  0  0  0  0  0  0  0  0  0  0  0
  -12.7167   14.3310  -28.0116 O   0  0  0  0  0  0  0  0  0  0  0  0
  -13.6287   16.2290  -26.9370 N   0  0  2  0  0  4  0  0  0  0  0  0
  -12.4661   17.0350  -27.0327 C   0  0  1  0  0  0  0  0  0  0  0  0
  -11.6145   16.9280  -28.1961 C   0  0  0  0  0  0  0  0  0  0  0  0
  -12.0765   16.4590  -29.3012 O   0  0  0  0  0  0  0  0  0  0  0  0
  -10.2447   17.2950  -28.2943 N   0  0  0  0  0  0  0  0  0  0  0  0
   -9.4825   17.1002  -29.5122 C   0  0  0  0  0  0  0  0  0  0  0  0
   -8.1931   17.3377  -29.7149 N   0  0  0  0  0  0  0  0  0  0  0  0
   -7.6718   17.1070  -30.8736 C   0  0  0  0  0  0  0  0  0  0  0  0
   -8.4903   16.6180  -31.8593 C   0  0  0  0  0  0  0  0  0  0  0  0
   -9.9899   16.5204  -31.0348 S   0  0  0  0  0  0  0  0  0  0  0  0
  -12.6851   18.4416  -26.5332 C   0  0  0  0  0  0  0  0  0  0  0  0
  -11.9064   18.8849  -25.4581 C   0  0  0  0  0  0  0  0  0  0  0  0
  -12.0703   20.1606  -24.9463 C   0  0  0  0  0  0  0  0  0  0  0  0
  -13.0180   20.9714  -25.5273 C   0  0  0  0  0  0  0  0  0  0  0  0
  -13.8077   20.5500  -26.6033 C   0  0  0  0  0  0  0  0  0  0  0  0
  -13.6188   19.2759  -27.0867 C   0  0  0  0  0  0  0  0  0  0  0  0
  -14.2805   16.3086  -25.6433 C   0  0  0  0  0  0  0  0  0  0  0  0
  -17.6485   10.6661  -25.1549 C   0  0  0  0  0  0  0  0  0  0  0  0
  -18.1075    9.3602  -25.1845 C   0  0  0  0  0  0  0  0  0  0  0  0
  -17.9347    6.3271  -24.3300 C   0  0  0  0  0  0  0  0  0  0  0  0
  -18.3484    4.8783  -24.4756 C   0  0  0  0  0  0  0  0  0  0  0  0
  2  1  1  6
  2  3  1  0
  3  4  1  0
  4  5  1  0
  5  6  1  1
  6  7  2  0
  7  8  1  0
  8  9  2  0
  9 10  1  0
 10 11  2  0
 11 12  1  0
 12 13  2  0
 13 14  1  0
 14 15  2  0
 14 16  1  0
 16 17  2  0
 16 18  1  0
 18 19  1  0
 19 20  1  6
 20 21  2  0
 20 22  1  0
 22 23  1  0
 23 24  2  0
 24 25  1  0
 25 26  2  0
 26 27  1  0
 19 28  1  0
 28 29  2  0
 29 30  1  0
 30 31  2  0
 31 32  1  0
 32 33  2  0
 18 34  1  1
  9 35  1  0
 35 36  2  0
  5 37  1  0
 37 38  1  0
 38  2  1  0
 36  6  1  0
 15 10  1  0
 27 23  1  0
 33 28  1  0
 34 13  1  0
M  CHG  2   2   1  18   1
M  END
$$$$
CHEMBL5198812_diffdock_4
     RDKit          3D

 38 43  0  0  0  0  0  0  0  0999 V2000
  -18.9776    3.2320  -24.2325 C   0  0  0  0  0  0  0  0  0  0  0  0
  -18.4092    4.5649  -24.4149 N   0  0  2  0  0  4  0  0  0  0  0  0
  -19.1939    5.5121  -23.6583 C   0  0  0  0  0  0  0  0  0  0  0  0
  -18.5191    6.8624  -23.7630 C   0  0  0  0  0  0  0  0  0  0  0  0
  -18.5618    7.2879  -25.2114 C   0  0  1  0  0  0  0  0  0  0  0  0
  -17.9913    8.6602  -25.3894 C   0  0  0  0  0  0  0  0  0  0  0  0
  -17.0599    8.8925  -26.3783 C   0  0  0  0  0  0  0  0  0  0  0  0
  -16.5120   10.1544  -26.5655 C   0  0  0  0  0  0  0  0  0  0  0  0
  -16.8739   11.2243  -25.7747 C   0  0  0  0  0  0  0  0  0  0  0  0
  -16.2785   12.5439  -25.9900 C   0  0  0  0  0  0  0  0  0  0  0  0
  -16.8090   13.6533  -25.3567 C   0  0  0  0  0  0  0  0  0  0  0  0
  -16.3189   14.9234  -25.4949 C   0  0  0  0  0  0  0  0  0  0  0  0
  -15.2330   15.1324  -26.3080 C   0  0  0  0  0  0  0  0  0  0  0  0
  -14.6624   14.0598  -26.9660 C   0  0  0  0  0  0  0  0  0  0  0  0
  -15.1895   12.7738  -26.8020 C   0  0  0  0  0  0  0  0  0  0  0  0
  -13.5398   14.5292  -27.7610 C   0  0  0  0  0  0  0  0  0  0  0  0
  -12.6806   13.7838  -28.2804 O   0  0  0  0  0  0  0  0  0  0  0  0
  -13.6071   15.9111  -27.8273 N   0  0  2  0  0  4  0  0  0  0  0  0
  -12.3912   16.6339  -27.9257 C   0  0  1  0  0  0  0  0  0  0  0  0
  -11.5460   16.4588  -29.0854 C   0  0  0  0  0  0  0  0  0  0  0  0
  -11.9990   15.8795  -30.1408 O   0  0  0  0  0  0  0  0  0  0  0  0
  -10.1918   16.8663  -29.2306 N   0  0  0  0  0  0  0  0  0  0  0  0
   -9.4907   16.7662  -30.4957 C   0  0  0  0  0  0  0  0  0  0  0  0
   -8.2512   17.1481  -30.7743 N   0  0  0  0  0  0  0  0  0  0  0  0
   -7.7812   16.9849  -31.9660 C   0  0  0  0  0  0  0  0  0  0  0  0
   -8.6003   16.4136  -32.9058 C   0  0  0  0  0  0  0  0  0  0  0  0
  -10.0249   16.1431  -31.9918 S   0  0  0  0  0  0  0  0  0  0  0  0
  -12.5138   18.0564  -27.4383 C   0  0  0  0  0  0  0  0  0  0  0  0
  -11.8868   18.3935  -26.2333 C   0  0  0  0  0  0  0  0  0  0  0  0
  -11.9744   19.6789  -25.7272 C   0  0  0  0  0  0  0  0  0  0  0  0
  -12.6936   20.6067  -26.4450 C   0  0  0  0  0  0  0  0  0  0  0  0
  -13.3282   20.2928  -27.6523 C   0  0  0  0  0  0  0  0  0  0  0  0
  -13.2210   19.0056  -28.1259 C   0  0  0  0  0  0  0  0  0  0  0  0
  -14.4300   16.3174  -26.7037 C   0  0  0  0  0  0  0  0  0  0  0  0
  -17.8056   10.9920  -24.7855 C   0  0  0  0  0  0  0  0  0  0  0  0
  -18.3503    9.7325  -24.6011 C   0  0  0  0  0  0  0  0  0  0  0  0
  -17.8037    6.2669  -26.0178 C   0  0  0  0  0  0  0  0  0  0  0  0
  -18.4888    4.9306  -25.8269 C   0  0  0  0  0  0  0  0  0  0  0  0
  2  1  1  6
  2  3  1  0
  3  4  1  0
  4  5  1  0
  5  6  1  1
  6  7  2  0
  7  8  1  0
  8  9  2  0
  9 10  1  0
 10 11  2  0
 11 12  1  0
 12 13  2  0
 13 14  1  0
 14 15  2  0
 14 16  1  0
 16 17  2  0
 16 18  1  0
 18 19  1  0
 19 20  1  6
 20 21  2  0
 20 22  1  0
 22 23  1  0
 23 24  2  0
 24 25  1  0
 25 26  2  0
 26 27  1  0
 19 28  1  0
 28 29  2  0
 29 30  1  0
 30 31  2  0
 31 32  1  0
 32 33  2  0
 18 34  1  1
  9 35  1  0
 35 36  2  0
  5 37  1  0
 37 38  1  0
 38  2  1  0
 36  6  1  0
 15 10  1  0
 27 23  1  0
 33 28  1  0
 34 13  1  0
M  CHG  2   2   1  18   1
M  END
$$$$
CHEMBL5198812_diffdock_5
     RDKit          3D

 38 43  0  0  0  0  0  0  0  0999 V2000
  -19.0861   26.8120  -20.9785 C   0  0  0  0  0  0  0  0  0  0  0  0
  -18.6658   25.4628  -21.3473 N   0  0  2  0  0  4  0  0  0  0  0  0
  -17.2371   25.4622  -21.5567 C   0  0  0  0  0  0  0  0  0  0  0  0
  -16.8068   24.0352  -21.8181 C   0  0  0  0  0  0  0  0  0  0  0  0
  -17.4571   23.5862  -23.1050 C   0  0  1  0  0  0  0  0  0  0  0  0
  -17.0112   22.2089  -23.4849 C   0  0  0  0  0  0  0  0  0  0  0  0
  -17.8842   21.1488  -23.3675 C   0  0  0  0  0  0  0  0  0  0  0  0
  -17.4979   19.8601  -23.7104 C   0  0  0  0  0  0  0  0  0  0  0  0
  -16.2310   19.5860  -24.1806 C   0  0  0  0  0  0  0  0  0  0  0  0
  -15.8473   18.2179  -24.5315 C   0  0  0  0  0  0  0  0  0  0  0  0
  -16.2496   17.1611  -23.7348 C   0  0  0  0  0  0  0  0  0  0  0  0
  -15.9420   15.8514  -23.9843 C   0  0  0  0  0  0  0  0  0  0  0  0
  -15.1882   15.5441  -25.0896 C   0  0  0  0  0  0  0  0  0  0  0  0
  -14.7586   16.5606  -25.9210 C   0  0  0  0  0  0  0  0  0  0  0  0
  -15.0914   17.8897  -25.6356 C   0  0  0  0  0  0  0  0  0  0  0  0
  -13.9828   15.9912  -27.0102 C   0  0  0  0  0  0  0  0  0  0  0  0
  -13.6573   16.6115  -28.0460 O   0  0  0  0  0  0  0  0  0  0  0  0
  -13.6864   14.6774  -26.6869 N   0  0  2  0  0  4  0  0  0  0  0  0
  -13.5613   13.7421  -27.7452 C   0  0  1  0  0  0  0  0  0  0  0  0
  -12.3735   13.7483  -28.5694 C   0  0  0  0  0  0  0  0  0  0  0  0
  -12.3670   13.1499  -29.7081 O   0  0  0  0  0  0  0  0  0  0  0  0
  -11.1277   14.3667  -28.2758 N   0  0  0  0  0  0  0  0  0  0  0  0
  -10.1710   14.6983  -29.3135 C   0  0  0  0  0  0  0  0  0  0  0  0
   -9.5387   15.8491  -29.5032 N   0  0  0  0  0  0  0  0  0  0  0  0
   -8.7129   15.9737  -30.4881 C   0  0  0  0  0  0  0  0  0  0  0  0
   -8.5241   14.8905  -31.3077 C   0  0  0  0  0  0  0  0  0  0  0  0
   -9.5712   13.7384  -30.5905 S   0  0  0  0  0  0  0  0  0  0  0  0
  -14.0733   12.3710  -27.3796 C   0  0  0  0  0  0  0  0  0  0  0  0
  -15.3538   12.0110  -27.8150 C   0  0  0  0  0  0  0  0  0  0  0  0
  -15.8844   10.7720  -27.4999 C   0  0  0  0  0  0  0  0  0  0  0  0
  -15.1146    9.9130  -26.7498 C   0  0  0  0  0  0  0  0  0  0  0  0
  -13.8316   10.2508  -26.3040 C   0  0  0  0  0  0  0  0  0  0  0  0
  -13.3355   11.4905  -26.6349 C   0  0  0  0  0  0  0  0  0  0  0  0
  -14.6644   14.2899  -25.6878 C   0  0  0  0  0  0  0  0  0  0  0  0
  -15.3578   20.6463  -24.2982 C   0  0  0  0  0  0  0  0  0  0  0  0
  -15.7457   21.9304  -23.9555 C   0  0  0  0  0  0  0  0  0  0  0  0
  -18.9499   23.6504  -22.9181 C   0  0  0  0  0  0  0  0  0  0  0  0
  -19.3115   25.0860  -22.6023 C   0  0  0  0  0  0  0  0  0  0  0  0
  2  1  1  6
  2  3  1  0
  3  4  1  0
  4  5  1  0
  5  6  1  1
  6  7  2  0
  7  8  1  0
  8  9  2  0
  9 10  1  0
 10 11  2  0
 11 12  1  0
 12 13  2  0
 13 14  1  0
 14 15  2  0
 14 16  1  0
 16 17  2  0
 16 18  1  0
 18 19  1  0
 19 20  1  1
 20 21  2  0
 20 22  1  0
 22 23  1  0
 23 24  2  0
 24 25  1  0
 25 26  2  0
 26 27  1  0
 19 28  1  0
 28 29  2  0
 29 30  1  0
 30 31  2  0
 31 32  1  0
 32 33  2  0
 18 34  1  1
  9 35  1  0
 35 36  2  0
  5 37  1  0
 37 38  1  0
 38  2  1  0
 36  6  1  0
 15 10  1  0
 27 23  1  0
 33 28  1  0
 34 13  1  0
M  CHG  2   2   1  18   1
M  END
$$$$
CHEMBL5198812_diffdock_6
     RDKit          3D

 38 43  0  0  0  0  0  0  0  0999 V2000
  -20.2499    3.7454  -23.9224 C   0  0  0  0  0  0  0  0  0  0  0  0
  -19.5792    5.0405  -23.9991 N   0  0  2  0  0  4  0  0  0  0  0  0
  -20.5007    6.0093  -24.5445 C   0  0  0  0  0  0  0  0  0  0  0  0
  -19.8285    7.3643  -24.5024 C   0  0  0  0  0  0  0  0  0  0  0  0
  -18.6275    7.3115  -25.4164 C   0  0  1  0  0  0  0  0  0  0  0  0
  -17.9534    8.6451  -25.5019 C   0  0  0  0  0  0  0  0  0  0  0  0
  -18.3672    9.6762  -24.6861 C   0  0  0  0  0  0  0  0  0  0  0  0
  -17.7620   10.9243  -24.7448 C   0  0  0  0  0  0  0  0  0  0  0  0
  -16.7264   11.1855  -25.6168 C   0  0  0  0  0  0  0  0  0  0  0  0
  -16.1078   12.5112  -25.6619 C   0  0  0  0  0  0  0  0  0  0  0  0
  -16.6689   13.5602  -24.9560 C   0  0  0  0  0  0  0  0  0  0  0  0
  -16.1608   14.8305  -24.9360 C   0  0  0  0  0  0  0  0  0  0  0  0
  -15.0232   15.1031  -25.6543 C   0  0  0  0  0  0  0  0  0  0  0  0
  -14.4202   14.0926  -26.3784 C   0  0  0  0  0  0  0  0  0  0  0  0
  -14.9672   12.8044  -26.3766 C   0  0  0  0  0  0  0  0  0  0  0  0
  -13.2452   14.6220  -27.0503 C   0  0  0  0  0  0  0  0  0  0  0  0
  -12.3604   13.9193  -27.5861 O   0  0  0  0  0  0  0  0  0  0  0  0
  -13.2969   16.0045  -26.9830 N   0  0  2  0  0  4  0  0  0  0  0  0
  -12.0715   16.7160  -26.9321 C   0  0  1  0  0  0  0  0  0  0  0  0
  -11.0895   16.5262  -27.9761 C   0  0  0  0  0  0  0  0  0  0  0  0
  -11.3266   15.7283  -28.9568 O   0  0  0  0  0  0  0  0  0  0  0  0
   -9.8119   17.1415  -28.0755 N   0  0  0  0  0  0  0  0  0  0  0  0
   -8.8599   16.7734  -29.1052 C   0  0  0  0  0  0  0  0  0  0  0  0
   -7.5514   16.9914  -29.1225 N   0  0  0  0  0  0  0  0  0  0  0  0
   -6.8472   16.5942  -30.1294 C   0  0  0  0  0  0  0  0  0  0  0  0
   -7.4965   15.9534  -31.1533 C   0  0  0  0  0  0  0  0  0  0  0  0
   -9.1142   15.9653  -30.5864 S   0  0  0  0  0  0  0  0  0  0  0  0
  -12.2405   18.1425  -26.4712 C   0  0  0  0  0  0  0  0  0  0  0  0
  -11.7434   18.4876  -25.2092 C   0  0  0  0  0  0  0  0  0  0  0  0
  -11.8800   19.7772  -24.7250 C   0  0  0  0  0  0  0  0  0  0  0  0
  -12.5165   20.7009  -25.5218 C   0  0  0  0  0  0  0  0  0  0  0  0
  -13.0209   20.3790  -26.7870 C   0  0  0  0  0  0  0  0  0  0  0  0
  -12.8682   19.0879  -27.2369 C   0  0  0  0  0  0  0  0  0  0  0  0
  -14.1870   16.3097  -25.8788 C   0  0  0  0  0  0  0  0  0  0  0  0
  -16.3123   10.1542  -26.4327 C   0  0  0  0  0  0  0  0  0  0  0  0
  -16.9177    8.9105  -26.3721 C   0  0  0  0  0  0  0  0  0  0  0  0
  -17.6921    6.2536  -24.8935 C   0  0  0  0  0  0  0  0  0  0  0  0
  -18.4375    4.9361  -24.9042 C   0  0  0  0  0  0  0  0  0  0  0  0
  2  1  1  6
  2  3  1  0
  3  4  1  0
  4  5  1  0
  5  6  1  1
  6  7  2  0
  7  8  1  0
  8  9  2  0
  9 10  1  0
 10 11  2  0
 11 12  1  0
 12 13  2  0
 13 14  1  0
 14 15  2  0
 14 16  1  0
 16 17  2  0
 16 18  1  0
 18 19  1  0
 19 20  1  6
 20 21  2  0
 20 22  1  0
 22 23  1  0
 23 24  2  0
 24 25  1  0
 25 26  2  0
 26 27  1  0
 19 28  1  0
 28 29  2  0
 29 30  1  0
 30 31  2  0
 31 32  1  0
 32 33  2  0
 18 34  1  1
  9 35  1  0
 35 36  2  0
  5 37  1  0
 37 38  1  0
 38  2  1  0
 36  6  1  0
 15 10  1  0
 27 23  1  0
 33 28  1  0
 34 13  1  0
M  CHG  2   2   1  18   1
M  END
$$$$
CHEMBL5198812_diffdock_7
     RDKit          3D

 38 43  0  0  0  0  0  0  0  0999 V2000
  -19.4993    3.8226  -24.3760 C   0  0  0  0  0  0  0  0  0  0  0  0
  -18.7940    5.0525  -24.7264 N   0  0  2  0  0  4  0  0  0  0  0  0
  -18.6410    5.8556  -23.5361 C   0  0  0  0  0  0  0  0  0  0  0  0
  -17.8048    7.0643  -23.8959 C   0  0  0  0  0  0  0  0  0  0  0  0
  -18.5828    7.8805  -24.9005 C   0  0  1  0  0  0  0  0  0  0  0  0
  -17.8617    9.1461  -25.2444 C   0  0  0  0  0  0  0  0  0  0  0  0
  -18.5095   10.3572  -25.1299 C   0  0  0  0  0  0  0  0  0  0  0  0
  -17.8667   11.5471  -25.4436 C   0  0  0  0  0  0  0  0  0  0  0  0
  -16.5593   11.5690  -25.8811 C   0  0  0  0  0  0  0  0  0  0  0  0
  -15.9055   12.8367  -26.2093 C   0  0  0  0  0  0  0  0  0  0  0  0
  -16.5218   14.0343  -25.8944 C   0  0  0  0  0  0  0  0  0  0  0  0
  -15.9871   15.2656  -26.1593 C   0  0  0  0  0  0  0  0  0  0  0  0
  -14.7627   15.3403  -26.7753 C   0  0  0  0  0  0  0  0  0  0  0  0
  -14.1014   14.1751  -27.1129 C   0  0  0  0  0  0  0  0  0  0  0  0
  -14.6779   12.9322  -26.8273 C   0  0  0  0  0  0  0  0  0  0  0  0
  -12.8388   14.5097  -27.7504 C   0  0  0  0  0  0  0  0  0  0  0  0
  -11.9133   13.6947  -27.9572 O   0  0  0  0  0  0  0  0  0  0  0  0
  -12.8623   15.8569  -28.0715 N   0  0  2  0  0  4  0  0  0  0  0  0
  -11.6345   16.5659  -28.0634 C   0  0  1  0  0  0  0  0  0  0  0  0
  -11.0936   17.0752  -29.3036 C   0  0  0  0  0  0  0  0  0  0  0  0
  -11.8630   17.6352  -30.1691 O   0  0  0  0  0  0  0  0  0  0  0  0
   -9.7371   17.0408  -29.7273 N   0  0  0  0  0  0  0  0  0  0  0  0
   -9.3237   17.5440  -31.0226 C   0  0  0  0  0  0  0  0  0  0  0  0
   -8.1071   17.5347  -31.5516 N   0  0  0  0  0  0  0  0  0  0  0  0
   -7.9141   18.0311  -32.7280 C   0  0  0  0  0  0  0  0  0  0  0  0
   -8.9959   18.5546  -33.3885 C   0  0  0  0  0  0  0  0  0  0  0  0
  -10.2474   18.2921  -32.2470 S   0  0  0  0  0  0  0  0  0  0  0  0
  -11.5027   17.4967  -26.8835 C   0  0  0  0  0  0  0  0  0  0  0  0
  -12.6699   17.8647  -26.2045 C   0  0  0  0  0  0  0  0  0  0  0  0
  -12.6154   18.7266  -25.1227 C   0  0  0  0  0  0  0  0  0  0  0  0
  -11.3830   19.2048  -24.7409 C   0  0  0  0  0  0  0  0  0  0  0  0
  -10.2027   18.8503  -25.4042 C   0  0  0  0  0  0  0  0  0  0  0  0
  -10.2934   17.9920  -26.4756 C   0  0  0  0  0  0  0  0  0  0  0  0
  -13.8738   16.4460  -27.2145 C   0  0  0  0  0  0  0  0  0  0  0  0
  -15.9111   10.3577  -25.9956 C   0  0  0  0  0  0  0  0  0  0  0  0
  -16.5547    9.1726  -25.6820 C   0  0  0  0  0  0  0  0  0  0  0  0
  -18.8073    7.0253  -26.1194 C   0  0  0  0  0  0  0  0  0  0  0  0
  -19.5951    5.8073  -25.6868 C   0  0  0  0  0  0  0  0  0  0  0  0
  2  1  1  1
  2  3  1  0
  3  4  1  0
  4  5  1  0
  5  6  1  6
  6  7  2  0
  7  8  1  0
  8  9  2  0
  9 10  1  0
 10 11  2  0
 11 12  1  0
 12 13  2  0
 13 14  1  0
 14 15  2  0
 14 16  1  0
 16 17  2  0
 16 18  1  0
 18 19  1  0
 19 20  1  6
 20 21  2  0
 20 22  1  0
 22 23  1  0
 23 24  2  0
 24 25  1  0
 25 26  2  0
 26 27  1  0
 19 28  1  0
 28 29  2  0
 29 30  1  0
 30 31  2  0
 31 32  1  0
 32 33  2  0
 18 34  1  1
  9 35  1  0
 35 36  2  0
  5 37  1  0
 37 38  1  0
 38  2  1  0
 36  6  1  0
 15 10  1  0
 27 23  1  0
 33 28  1  0
 34 13  1  0
M  CHG  2   2   1  18   1
M  END
$$$$
CHEMBL5198812_diffdock_8
     RDKit          3D

 38 43  0  0  0  0  0  0  0  0999 V2000
  -20.9739    8.8424  -22.6029 C   0  0  0  0  0  0  0  0  0  0  0  0
  -19.9616    9.4678  -23.4496 N   0  0  2  0  0  4  0  0  0  0  0  0
  -18.6873    9.4058  -22.7733 C   0  0  0  0  0  0  0  0  0  0  0  0
  -17.6347    9.9479  -23.7156 C   0  0  0  0  0  0  0  0  0  0  0  0
  -17.9475   11.4036  -23.9676 C   0  0  1  0  0  0  0  0  0  0  0  0
  -16.8990   12.0422  -24.8237 C   0  0  0  0  0  0  0  0  0  0  0  0
  -16.1025   11.2590  -25.6312 C   0  0  0  0  0  0  0  0  0  0  0  0
  -15.1207   11.8233  -26.4344 C   0  0  0  0  0  0  0  0  0  0  0  0
  -14.9007   13.1842  -26.4592 C   0  0  0  0  0  0  0  0  0  0  0  0
  -13.8564   13.7538  -27.3119 C   0  0  0  0  0  0  0  0  0  0  0  0
  -13.6399   13.2388  -28.5773 C   0  0  0  0  0  0  0  0  0  0  0  0
  -12.6907   13.7072  -29.4445 C   0  0  0  0  0  0  0  0  0  0  0  0
  -11.8924   14.7537  -29.0548 C   0  0  0  0  0  0  0  0  0  0  0  0
  -12.0648   15.3073  -27.8007 C   0  0  0  0  0  0  0  0  0  0  0  0
  -13.0454   14.8032  -26.9389 C   0  0  0  0  0  0  0  0  0  0  0  0
  -11.1099   16.3882  -27.6202 C   0  0  0  0  0  0  0  0  0  0  0  0
  -11.1633   17.2324  -26.6993 O   0  0  0  0  0  0  0  0  0  0  0  0
  -10.1657   16.3017  -28.6300 N   0  0  2  0  0  4  0  0  0  0  0  0
   -9.5719   17.5034  -29.0924 C   0  0  1  0  0  0  0  0  0  0  0  0
   -8.1332   17.5958  -29.2000 C   0  0  0  0  0  0  0  0  0  0  0  0
   -7.4072   16.5346  -29.1632 O   0  0  0  0  0  0  0  0  0  0  0  0
   -7.3575   18.7774  -29.3517 N   0  0  0  0  0  0  0  0  0  0  0  0
   -5.9171   18.7356  -29.5119 C   0  0  0  0  0  0  0  0  0  0  0  0
   -5.0752   19.7574  -29.5959 N   0  0  0  0  0  0  0  0  0  0  0  0
   -3.8109   19.5380  -29.7401 C   0  0  0  0  0  0  0  0  0  0  0  0
   -3.3889   18.2346  -29.8007 C   0  0  0  0  0  0  0  0  0  0  0  0
   -4.8733   17.3920  -29.6428 S   0  0  0  0  0  0  0  0  0  0  0  0
  -10.3356   18.1348  -30.2299 C   0  0  0  0  0  0  0  0  0  0  0  0
   -9.9509   17.8137  -31.5367 C   0  0  0  0  0  0  0  0  0  0  0  0
  -10.6042   18.3713  -32.6222 C   0  0  0  0  0  0  0  0  0  0  0  0
  -11.6373   19.2454  -32.3735 C   0  0  0  0  0  0  0  0  0  0  0  0
  -12.0398   19.5809  -31.0757 C   0  0  0  0  0  0  0  0  0  0  0  0
  -11.3684   19.0086  -30.0201 C   0  0  0  0  0  0  0  0  0  0  0  0
  -10.7899   15.5244  -29.6840 C   0  0  0  0  0  0  0  0  0  0  0  0
  -15.6973   13.9677  -25.6517 C   0  0  0  0  0  0  0  0  0  0  0  0
  -16.6757   13.4023  -24.8517 C   0  0  0  0  0  0  0  0  0  0  0  0
  -19.3070   11.4820  -24.6103 C   0  0  0  0  0  0  0  0  0  0  0  0
  -20.3052   10.8736  -23.6486 C   0  0  0  0  0  0  0  0  0  0  0  0
  2  1  1  1
  2  3  1  0
  3  4  1  0
  4  5  1  0
  5  6  1  6
  6  7  2  0
  7  8  1  0
  8  9  2  0
  9 10  1  0
 10 11  2  0
 11 12  1  0
 12 13  2  0
 13 14  1  0
 14 15  2  0
 14 16  1  0
 16 17  2  0
 16 18  1  0
 18 19  1  0
 19 20  1  6
 20 21  2  0
 20 22  1  0
 22 23  1  0
 23 24  2  0
 24 25  1  0
 25 26  2  0
 26 27  1  0
 19 28  1  0
 28 29  2  0
 29 30  1  0
 30 31  2  0
 31 32  1  0
 32 33  2  0
 18 34  1  6
  9 35  1  0
 35 36  2  0
  5 37  1  0
 37 38  1  0
 38  2  1  0
 36  6  1  0
 15 10  1  0
 27 23  1  0
 33 28  1  0
 34 13  1  0
M  CHG  2   2   1  18   1
M  END
$$$$
CHEMBL5198812_diffdock_9
     RDKit          3D

 38 43  0  0  0  0  0  0  0  0999 V2000
  -24.0340    9.5501  -21.0713 C   0  0  0  0  0  0  0  0  0  0  0  0
  -22.8404    9.8531  -21.8564 N   0  0  2  0  0  4  0  0  0  0  0  0
  -21.7711   10.2143  -20.9557 C   0  0  0  0  0  0  0  0  0  0  0  0
  -20.5157   10.4057  -21.7785 C   0  0  0  0  0  0  0  0  0  0  0  0
  -20.7462   11.5751  -22.7057 C   0  0  1  0  0  0  0  0  0  0  0  0
  -19.5151   11.8896  -23.4967 C   0  0  0  0  0  0  0  0  0  0  0  0
  -18.6214   12.8291  -23.0297 C   0  0  0  0  0  0  0  0  0  0  0  0
  -17.4722   13.1427  -23.7429 C   0  0  0  0  0  0  0  0  0  0  0  0
  -17.1765   12.5313  -24.9428 C   0  0  0  0  0  0  0  0  0  0  0  0
  -15.9603   12.8826  -25.6773 C   0  0  0  0  0  0  0  0  0  0  0  0
  -15.2171   11.8942  -26.2970 C   0  0  0  0  0  0  0  0  0  0  0  0
  -14.0705   12.1271  -27.0066 C   0  0  0  0  0  0  0  0  0  0  0  0
  -13.6111   13.4153  -27.1238 C   0  0  0  0  0  0  0  0  0  0  0  0
  -14.3140   14.4428  -26.5245 C   0  0  0  0  0  0  0  0  0  0  0  0
  -15.4832   14.1686  -25.8058 C   0  0  0  0  0  0  0  0  0  0  0  0
  -13.6351   15.7014  -26.7846 C   0  0  0  0  0  0  0  0  0  0  0  0
  -14.1356   16.8295  -26.5834 O   0  0  0  0  0  0  0  0  0  0  0  0
  -12.3733   15.4157  -27.2795 N   0  0  2  0  0  4  0  0  0  0  0  0
  -11.7935   16.3299  -28.1952 C   0  0  1  0  0  0  0  0  0  0  0  0
  -11.6139   17.7119  -27.8103 C   0  0  0  0  0  0  0  0  0  0  0  0
  -12.1375   18.1594  -26.7240 O   0  0  0  0  0  0  0  0  0  0  0  0
  -10.8890   18.7120  -28.5140 N   0  0  0  0  0  0  0  0  0  0  0  0
  -10.5244   19.9730  -27.8983 C   0  0  0  0  0  0  0  0  0  0  0  0
   -9.8877   20.9972  -28.4510 N   0  0  0  0  0  0  0  0  0  0  0  0
   -9.6400   22.0534  -27.7505 C   0  0  0  0  0  0  0  0  0  0  0  0
  -10.0545   22.0678  -26.4434 C   0  0  0  0  0  0  0  0  0  0  0  0
  -10.7896   20.5255  -26.3057 S   0  0  0  0  0  0  0  0  0  0  0  0
  -10.6467   15.7331  -28.9727 C   0  0  0  0  0  0  0  0  0  0  0  0
  -10.9151   15.2169  -30.2456 C   0  0  0  0  0  0  0  0  0  0  0  0
   -9.9073   14.6442  -31.0022 C   0  0  0  0  0  0  0  0  0  0  0  0
   -8.6420   14.6008  -30.4634 C   0  0  0  0  0  0  0  0  0  0  0  0
   -8.3499   15.1111  -29.1933 C   0  0  0  0  0  0  0  0  0  0  0  0
   -9.3754   15.6730  -28.4684 C   0  0  0  0  0  0  0  0  0  0  0  0
  -12.4506   14.0598  -27.7896 C   0  0  0  0  0  0  0  0  0  0  0  0
  -18.0704   11.5914  -25.4100 C   0  0  0  0  0  0  0  0  0  0  0  0
  -19.2156   11.2807  -24.6967 C   0  0  0  0  0  0  0  0  0  0  0  0
  -21.9062   11.2343  -23.6034 C   0  0  0  0  0  0  0  0  0  0  0  0
  -23.1141   10.9971  -22.7225 C   0  0  0  0  0  0  0  0  0  0  0  0
  2  1  1  1
  2  3  1  0
  3  4  1  0
  4  5  1  0
  5  6  1  6
  6  7  2  0
  7  8  1  0
  8  9  2  0
  9 10  1  0
 10 11  2  0
 11 12  1  0
 12 13  2  0
 13 14  1  0
 14 15  2  0
 14 16  1  0
 16 17  2  0
 16 18  1  0
 18 19  1  0
 19 20  1  1
 20 21  2  0
 20 22  1  0
 22 23  1  0
 23 24  2  0
 24 25  1  0
 25 26  2  0
 26 27  1  0
 19 28  1  0
 28 29  2  0
 29 30  1  0
 30 31  2  0
 31 32  1  0
 32 33  2  0
 18 34  1  6
  9 35  1  0
 35 36  2  0
  5 37  1  0
 37 38  1  0
 38  2  1  0
 36  6  1  0
 15 10  1  0
 27 23  1  0
 33 28  1  0
 34 13  1  0
M  CHG  2   2   1  18   1
M  END
$$$$
CHEMBL5198812_diffdock_10
     RDKit          3D

 38 43  0  0  0  0  0  0  0  0999 V2000
  -20.6664    4.4508  -22.9093 C   0  0  0  0  0  0  0  0  0  0  0  0
  -20.0743    5.7554  -23.1931 N   0  0  2  0  0  4  0  0  0  0  0  0
  -20.6007    6.2417  -24.4467 C   0  0  0  0  0  0  0  0  0  0  0  0
  -20.0694    7.6422  -24.6613 C   0  0  0  0  0  0  0  0  0  0  0  0
  -18.5686    7.5493  -24.8015 C   0  0  1  0  0  0  0  0  0  0  0  0
  -17.9697    8.8866  -25.1065 C   0  0  0  0  0  0  0  0  0  0  0  0
  -18.0428    9.8993  -24.1745 C   0  0  0  0  0  0  0  0  0  0  0  0
  -17.4982   11.1505  -24.4305 C   0  0  0  0  0  0  0  0  0  0  0  0
  -16.8638   11.4329  -25.6217 C   0  0  0  0  0  0  0  0  0  0  0  0
  -16.3013   12.7614  -25.8685 C   0  0  0  0  0  0  0  0  0  0  0  0
  -16.8174   13.8637  -25.2114 C   0  0  0  0  0  0  0  0  0  0  0  0
  -16.3554   15.1411  -25.3758 C   0  0  0  0  0  0  0  0  0  0  0  0
  -15.3147   15.3655  -26.2423 C   0  0  0  0  0  0  0  0  0  0  0  0
  -14.7603   14.3006  -26.9262 C   0  0  0  0  0  0  0  0  0  0  0  0
  -15.2578   13.0067  -26.7340 C   0  0  0  0  0  0  0  0  0  0  0  0
  -13.6863   14.7860  -27.7768 C   0  0  0  0  0  0  0  0  0  0  0  0
  -12.8421   14.0532  -28.3371 O   0  0  0  0  0  0  0  0  0  0  0  0
  -13.7791   16.1665  -27.8419 N   0  0  2  0  0  4  0  0  0  0  0  0
  -12.5815   16.9085  -28.0018 C   0  0  1  0  0  0  0  0  0  0  0  0
  -12.6417   18.2693  -28.4864 C   0  0  0  0  0  0  0  0  0  0  0  0
  -13.7767   18.8353  -28.7010 O   0  0  0  0  0  0  0  0  0  0  0  0
  -11.5457   19.1265  -28.7775 N   0  0  0  0  0  0  0  0  0  0  0  0
  -11.6862   20.5691  -28.8106 C   0  0  0  0  0  0  0  0  0  0  0  0
  -10.7372   21.4851  -28.6686 N   0  0  0  0  0  0  0  0  0  0  0  0
  -11.0410   22.7390  -28.7242 C   0  0  0  0  0  0  0  0  0  0  0  0
  -12.3551   23.0720  -28.9313 C   0  0  0  0  0  0  0  0  0  0  0  0
  -13.0830   21.5235  -29.0347 S   0  0  0  0  0  0  0  0  0  0  0  0
  -11.5937   16.6750  -26.8858 C   0  0  0  0  0  0  0  0  0  0  0  0
  -10.5430   15.7795  -27.1161 C   0  0  0  0  0  0  0  0  0  0  0  0
   -9.6125   15.5133  -26.1265 C   0  0  0  0  0  0  0  0  0  0  0  0
   -9.7553   16.1551  -24.9179 C   0  0  0  0  0  0  0  0  0  0  0  0
  -10.7972   17.0547  -24.6650 C   0  0  0  0  0  0  0  0  0  0  0  0
  -11.7045   17.2957  -25.6707 C   0  0  0  0  0  0  0  0  0  0  0  0
  -14.5516   16.5622  -26.6795 C   0  0  0  0  0  0  0  0  0  0  0  0
  -16.7905   10.4200  -26.5540 C   0  0  0  0  0  0  0  0  0  0  0  0
  -17.3346    9.1733  -26.2960 C   0  0  0  0  0  0  0  0  0  0  0  0
  -18.0172    6.9771  -23.5225 C   0  0  0  0  0  0  0  0  0  0  0  0
  -18.6280    5.6051  -23.3326 C   0  0  0  0  0  0  0  0  0  0  0  0
  2  1  1  6
  2  3  1  0
  3  4  1  0
  4  5  1  0
  5  6  1  1
  6  7  2  0
  7  8  1  0
  8  9  2  0
  9 10  1  0
 10 11  2  0
 11 12  1  0
 12 13  2  0
 13 14  1  0
 14 15  2  0
 14 16  1  0
 16 17  2  0
 16 18  1  0
 18 19  1  0
 19 20  1  1
 20 21  2  0
 20 22  1  0
 22 23  1  0
 23 24  2  0
 24 25  1  0
 25 26  2  0
 26 27  1  0
 19 28  1  0
 28 29  2  0
 29 30  1  0
 30 31  2  0
 31 32  1  0
 32 33  2  0
 18 34  1  1
  9 35  1  0
 35 36  2  0
  5 37  1  0
 37 38  1  0
 38  2  1  0
 36  6  1  0
 15 10  1  0
 27 23  1  0
 33 28  1  0
 34 13  1  0
M  CHG  2   2   1  18   1
M  END
$$$$
CHEMBL341522_diffdock_1
     RDKit          3D

 29 32  0  0  0  0  0  0  0  0999 V2000
   -8.8562   17.4949  -33.3938 C   0  0  0  0  0  0  0  0  0  0  0  0
   -9.0433   17.8841  -31.9621 C   0  0  0  0  0  0  0  0  0  0  0  0
   -8.2803   18.9007  -31.4308 C   0  0  0  0  0  0  0  0  0  0  0  0
   -8.4500   19.2595  -30.1168 C   0  0  0  0  0  0  0  0  0  0  0  0
   -9.3992   18.5907  -29.3195 C   0  0  0  0  0  0  0  0  0  0  0  0
  -10.1623   17.5846  -29.8240 C   0  0  0  0  0  0  0  0  0  0  0  0
  -11.1167   16.8744  -29.0576 N   0  0  0  0  0  0  0  0  0  0  0  0
  -11.2916   15.4845  -29.0280 C   0  0  0  0  0  0  0  0  0  0  0  0
  -10.4729   14.6661  -29.7042 N   0  0  0  0  0  0  0  0  0  0  0  0
  -10.5896   13.3294  -29.7145 C   0  0  0  0  0  0  0  0  0  0  0  0
  -11.5689   12.7359  -29.0210 N   0  0  0  0  0  0  0  0  0  0  0  0
  -12.4200   13.4869  -28.3253 C   0  0  0  0  0  0  0  0  0  0  0  0
  -13.4412   12.8733  -27.5989 C   0  0  0  0  0  0  0  0  0  0  0  0
  -14.3325   13.6313  -26.8695 C   0  0  0  0  0  0  0  0  0  0  0  0
  -15.3503   12.9818  -26.1477 N   0  0  0  0  0  0  0  0  0  0  0  0
  -15.9635   11.7404  -26.5609 C   0  0  0  0  0  0  0  0  0  0  0  0
  -16.2320   10.8193  -25.4094 C   0  0  0  0  0  0  0  0  0  0  0  0
  -16.8641    9.5176  -25.7299 C   0  0  0  0  0  0  0  0  0  0  0  0
  -18.1278    9.2229  -25.2095 N   0  0  0  0  0  0  0  0  0  0  0  0
  -18.5612    9.7882  -23.9933 C   0  0  0  0  0  0  0  0  0  0  0  0
  -19.3351    8.6694  -23.2574 C   0  0  0  0  0  0  0  0  0  0  0  0
  -20.4654    8.3668  -24.1344 N   0  0  0  0  0  0  0  0  0  0  0  0
  -21.4702    7.5755  -23.4950 C   0  0  0  0  0  0  0  0  0  0  0  0
  -20.0381    7.8256  -25.3883 C   0  0  0  0  0  0  0  0  0  0  0  0
  -19.1730    8.8734  -26.1057 C   0  0  0  0  0  0  0  0  0  0  0  0
  -14.1818   14.9510  -26.8859 N   0  0  0  0  0  0  0  0  0  0  0  0
  -13.2048   15.6054  -27.5757 C   0  0  0  0  0  0  0  0  0  0  0  0
  -12.3047   14.8862  -28.3092 C   0  0  0  0  0  0  0  0  0  0  0  0
   -9.9562   17.2524  -31.1667 C   0  0  0  0  0  0  0  0  0  0  0  0
  1  2  1  0
  2  3  2  0
  3  4  1  0
  4  5  2  0
  5  6  1  0
  6  7  1  0
  7  8  1  0
  8  9  2  0
  9 10  1  0
 10 11  2  0
 11 12  1  0
 12 13  2  0
 13 14  1  0
 14 15  1  0
 15 16  1  0
 16 17  1  0
 17 18  1  0
 18 19  1  0
 19 20  1  0
 20 21  1  0
 21 22  1  0
 22 23  1  0
 22 24  1  0
 24 25  1  0
 14 26  2  0
 26 27  1  0
 27 28  2  0
  6 29  2  0
 29  2  1  0
 28  8  1  0
 28 12  1  0
 25 19  1  0
M  END
$$$$
CHEMBL341522_diffdock_2
     RDKit          3D

 29 32  0  0  0  0  0  0  0  0999 V2000
   -9.0275   18.3241  -32.7848 C   0  0  0  0  0  0  0  0  0  0  0  0
   -9.2839   18.5667  -31.3317 C   0  0  0  0  0  0  0  0  0  0  0  0
   -8.6505   19.6126  -30.6970 C   0  0  0  0  0  0  0  0  0  0  0  0
   -8.8839   19.8372  -29.3632 C   0  0  0  0  0  0  0  0  0  0  0  0
   -9.7662   19.0017  -28.6508 C   0  0  0  0  0  0  0  0  0  0  0  0
  -10.4015   17.9639  -29.2578 C   0  0  0  0  0  0  0  0  0  0  0  0
  -11.2838   17.0896  -28.5797 N   0  0  0  0  0  0  0  0  0  0  0  0
  -11.3376   15.6957  -28.7116 C   0  0  0  0  0  0  0  0  0  0  0  0
  -10.3516   15.0157  -29.3138 N   0  0  0  0  0  0  0  0  0  0  0  0
  -10.3464   13.6830  -29.4700 C   0  0  0  0  0  0  0  0  0  0  0  0
  -11.3682   12.9496  -29.0113 N   0  0  0  0  0  0  0  0  0  0  0  0
  -12.3832   13.5584  -28.4017 C   0  0  0  0  0  0  0  0  0  0  0  0
  -13.4497   12.7986  -27.9198 C   0  0  0  0  0  0  0  0  0  0  0  0
  -14.5103   13.4078  -27.2834 C   0  0  0  0  0  0  0  0  0  0  0  0
  -15.5695   12.6131  -26.8088 N   0  0  0  0  0  0  0  0  0  0  0  0
  -15.4043   11.5332  -25.8630 C   0  0  0  0  0  0  0  0  0  0  0  0
  -16.7047   10.8837  -25.4974 C   0  0  0  0  0  0  0  0  0  0  0  0
  -16.9935   10.7371  -24.0511 C   0  0  0  0  0  0  0  0  0  0  0  0
  -17.9813    9.8383  -23.6373 N   0  0  0  0  0  0  0  0  0  0  0  0
  -18.3575    9.7476  -22.2819 C   0  0  0  0  0  0  0  0  0  0  0  0
  -18.5838    8.2429  -22.0044 C   0  0  0  0  0  0  0  0  0  0  0  0
  -19.6874    7.8685  -22.8876 N   0  0  0  0  0  0  0  0  0  0  0  0
  -20.2520    6.5952  -22.5645 C   0  0  0  0  0  0  0  0  0  0  0  0
  -19.3314    7.9910  -24.2682 C   0  0  0  0  0  0  0  0  0  0  0  0
  -18.9939    9.4615  -24.5593 C   0  0  0  0  0  0  0  0  0  0  0  0
  -14.4761   14.7289  -27.1493 N   0  0  0  0  0  0  0  0  0  0  0  0
  -13.4627   15.5221  -27.5990 C   0  0  0  0  0  0  0  0  0  0  0  0
  -12.3962   14.9525  -28.2343 C   0  0  0  0  0  0  0  0  0  0  0  0
  -10.1344   17.7723  -30.6170 C   0  0  0  0  0  0  0  0  0  0  0  0
  1  2  1  0
  2  3  2  0
  3  4  1  0
  4  5  2  0
  5  6  1  0
  6  7  1  0
  7  8  1  0
  8  9  2  0
  9 10  1  0
 10 11  2  0
 11 12  1  0
 12 13  2  0
 13 14  1  0
 14 15  1  0
 15 16  1  0
 16 17  1  0
 17 18  1  0
 18 19  1  0
 19 20  1  0
 20 21  1  0
 21 22  1  0
 22 23  1  0
 22 24  1  0
 24 25  1  0
 14 26  2  0
 26 27  1  0
 27 28  2  0
  6 29  2  0
 29  2  1  0
 28  8  1  0
 28 12  1  0
 25 19  1  0
M  END
$$$$
CHEMBL341522_diffdock_3
     RDKit          3D

 29 32  0  0  0  0  0  0  0  0999 V2000
   -9.6805   21.3923  -28.1488 C   0  0  0  0  0  0  0  0  0  0  0  0
   -9.8152   20.0770  -28.8473 C   0  0  0  0  0  0  0  0  0  0  0  0
   -9.1516   19.8702  -30.0367 C   0  0  0  0  0  0  0  0  0  0  0  0
   -9.2739   18.6638  -30.6800 C   0  0  0  0  0  0  0  0  0  0  0  0
  -10.0736   17.6459  -30.1248 C   0  0  0  0  0  0  0  0  0  0  0  0
  -10.7372   17.8292  -28.9522 C   0  0  0  0  0  0  0  0  0  0  0  0
  -11.5634   16.8420  -28.3646 N   0  0  0  0  0  0  0  0  0  0  0  0
  -11.5185   15.4639  -28.6141 C   0  0  0  0  0  0  0  0  0  0  0  0
  -10.5048   14.9138  -29.2975 N   0  0  0  0  0  0  0  0  0  0  0  0
  -10.4064   13.6031  -29.5675 C   0  0  0  0  0  0  0  0  0  0  0  0
  -11.3561   12.7582  -29.1473 N   0  0  0  0  0  0  0  0  0  0  0  0
  -12.3931   13.2348  -28.4619 C   0  0  0  0  0  0  0  0  0  0  0  0
  -13.3847   12.3583  -28.0197 C   0  0  0  0  0  0  0  0  0  0  0  0
  -14.4664   12.8296  -27.3064 C   0  0  0  0  0  0  0  0  0  0  0  0
  -15.4484   11.9196  -26.8746 N   0  0  0  0  0  0  0  0  0  0  0  0
  -16.6677   12.3093  -26.2042 C   0  0  0  0  0  0  0  0  0  0  0  0
  -16.5012   12.4098  -24.7181 C   0  0  0  0  0  0  0  0  0  0  0  0
  -17.1407   11.3506  -23.9022 C   0  0  0  0  0  0  0  0  0  0  0  0
  -18.2777   11.6584  -23.1491 N   0  0  0  0  0  0  0  0  0  0  0  0
  -18.2572   12.6966  -22.1960 C   0  0  0  0  0  0  0  0  0  0  0  0
  -19.0867   12.1859  -20.9946 C   0  0  0  0  0  0  0  0  0  0  0  0
  -20.4312   11.9877  -21.5343 N   0  0  0  0  0  0  0  0  0  0  0  0
  -21.4194   11.8103  -20.5163 C   0  0  0  0  0  0  0  0  0  0  0  0
  -20.4604   10.9607  -22.5304 C   0  0  0  0  0  0  0  0  0  0  0  0
  -19.5583   11.3852  -23.6996 C   0  0  0  0  0  0  0  0  0  0  0  0
  -14.5255   14.1336  -27.0604 N   0  0  0  0  0  0  0  0  0  0  0  0
  -13.5882   15.0365  -27.4662 C   0  0  0  0  0  0  0  0  0  0  0  0
  -12.5036   14.6049  -28.1752 C   0  0  0  0  0  0  0  0  0  0  0  0
  -10.5839   19.0730  -28.3314 C   0  0  0  0  0  0  0  0  0  0  0  0
  1  2  1  0
  2  3  2  0
  3  4  1  0
  4  5  2  0
  5  6  1  0
  6  7  1  0
  7  8  1  0
  8  9  2  0
  9 10  1  0
 10 11  2  0
 11 12  1  0
 12 13  2  0
 13 14  1  0
 14 15  1  0
 15 16  1  0
 16 17  1  0
 17 18  1  0
 18 19  1  0
 19 20  1  0
 20 21  1  0
 21 22  1  0
 22 23  1  0
 22 24  1  0
 24 25  1  0
 14 26  2  0
 26 27  1  0
 27 28  2  0
  6 29  2  0
 29  2  1  0
 28  8  1  0
 28 12  1  0
 25 19  1  0
M  END
$$$$
CHEMBL341522_diffdock_4
     RDKit          3D

 29 32  0  0  0  0  0  0  0  0999 V2000
   -9.6083   21.2376  -28.0593 C   0  0  0  0  0  0  0  0  0  0  0  0
   -9.8129   19.9469  -28.7860 C   0  0  0  0  0  0  0  0  0  0  0  0
   -9.1137   19.7051  -29.9482 C   0  0  0  0  0  0  0  0  0  0  0  0
   -9.3000   18.5213  -30.6173 C   0  0  0  0  0  0  0  0  0  0  0  0
  -10.2011   17.5616  -30.1161 C   0  0  0  0  0  0  0  0  0  0  0  0
  -10.9013   17.7802  -28.9712 C   0  0  0  0  0  0  0  0  0  0  0  0
  -11.8279   16.8527  -28.4383 N   0  0  0  0  0  0  0  0  0  0  0  0
  -11.7874   15.4597  -28.5840 C   0  0  0  0  0  0  0  0  0  0  0  0
  -10.7608   14.8544  -29.1979 N   0  0  0  0  0  0  0  0  0  0  0  0
  -10.6657   13.5267  -29.3675 C   0  0  0  0  0  0  0  0  0  0  0  0
  -11.6326   12.7210  -28.9112 N   0  0  0  0  0  0  0  0  0  0  0  0
  -12.6833   13.2533  -28.2906 C   0  0  0  0  0  0  0  0  0  0  0  0
  -13.6929   12.4178  -27.8111 C   0  0  0  0  0  0  0  0  0  0  0  0
  -14.7890   12.9472  -27.1634 C   0  0  0  0  0  0  0  0  0  0  0  0
  -15.7889   12.0776  -26.6916 N   0  0  0  0  0  0  0  0  0  0  0  0
  -15.5189   10.8696  -25.9461 C   0  0  0  0  0  0  0  0  0  0  0  0
  -16.0843   10.9103  -24.5587 C   0  0  0  0  0  0  0  0  0  0  0  0
  -17.3323   10.1458  -24.3243 C   0  0  0  0  0  0  0  0  0  0  0  0
  -17.8935   10.1260  -23.0440 N   0  0  0  0  0  0  0  0  0  0  0  0
  -17.1604    9.6501  -21.9381 C   0  0  0  0  0  0  0  0  0  0  0  0
  -18.1669    8.8580  -21.0711 C   0  0  0  0  0  0  0  0  0  0  0  0
  -19.1599    9.8505  -20.6621 N   0  0  0  0  0  0  0  0  0  0  0  0
  -20.0070    9.3886  -19.6068 C   0  0  0  0  0  0  0  0  0  0  0  0
  -19.8874   10.3696  -21.7797 C   0  0  0  0  0  0  0  0  0  0  0  0
  -18.9004   11.0749  -22.7229 C   0  0  0  0  0  0  0  0  0  0  0  0
  -14.8441   14.2662  -27.0161 N   0  0  0  0  0  0  0  0  0  0  0  0
  -13.8895   15.1309  -27.4627 C   0  0  0  0  0  0  0  0  0  0  0  0
  -12.7903   14.6415  -28.1090 C   0  0  0  0  0  0  0  0  0  0  0  0
  -10.6802   18.9992  -28.3225 C   0  0  0  0  0  0  0  0  0  0  0  0
  1  2  1  0
  2  3  2  0
  3  4  1  0
  4  5  2  0
  5  6  1  0
  6  7  1  0
  7  8  1  0
  8  9  2  0
  9 10  1  0
 10 11  2  0
 11 12  1  0
 12 13  2  0
 13 14  1  0
 14 15  1  0
 15 16  1  0
 16 17  1  0
 17 18  1  0
 18 19  1  0
 19 20  1  0
 20 21  1  0
 21 22  1  0
 22 23  1  0
 22 24  1  0
 24 25  1  0
 14 26  2  0
 26 27  1  0
 27 28  2  0
  6 29  2  0
 29  2  1  0
 28  8  1  0
 28 12  1  0
 25 19  1  0
M  END
$$$$
CHEMBL341522_diffdock_5
     RDKit          3D

 29 32  0  0  0  0  0  0  0  0999 V2000
   -7.7030   18.0300  -31.9143 C   0  0  0  0  0  0  0  0  0  0  0  0
   -8.6997   18.5360  -30.9211 C   0  0  0  0  0  0  0  0  0  0  0  0
   -8.9124   19.8922  -30.8051 C   0  0  0  0  0  0  0  0  0  0  0  0
   -9.8266   20.3592  -29.8939 C   0  0  0  0  0  0  0  0  0  0  0  0
  -10.5412   19.4548  -29.0843 C   0  0  0  0  0  0  0  0  0  0  0  0
  -10.3465   18.1127  -29.1825 C   0  0  0  0  0  0  0  0  0  0  0  0
  -11.0294   17.1679  -28.3804 N   0  0  0  0  0  0  0  0  0  0  0  0
  -11.3363   15.8464  -28.7311 C   0  0  0  0  0  0  0  0  0  0  0  0
  -10.8690   15.3011  -29.8632 N   0  0  0  0  0  0  0  0  0  0  0  0
  -11.1278   14.0433  -30.2522 C   0  0  0  0  0  0  0  0  0  0  0  0
  -11.8947   13.2505  -29.4934 N   0  0  0  0  0  0  0  0  0  0  0  0
  -12.3935   13.7257  -28.3542 C   0  0  0  0  0  0  0  0  0  0  0  0
  -13.1917   12.9030  -27.5585 C   0  0  0  0  0  0  0  0  0  0  0  0
  -13.7170   13.3735  -26.3737 C   0  0  0  0  0  0  0  0  0  0  0  0
  -14.5172   12.5184  -25.5945 N   0  0  0  0  0  0  0  0  0  0  0  0
  -15.5981   11.7208  -26.1268 C   0  0  0  0  0  0  0  0  0  0  0  0
  -16.8867   11.9325  -25.3911 C   0  0  0  0  0  0  0  0  0  0  0  0
  -18.0667   11.1828  -25.8834 C   0  0  0  0  0  0  0  0  0  0  0  0
  -19.3025   11.3601  -25.2543 N   0  0  0  0  0  0  0  0  0  0  0  0
  -19.5323   12.4607  -24.4042 C   0  0  0  0  0  0  0  0  0  0  0  0
  -20.3797   11.9194  -23.2290 C   0  0  0  0  0  0  0  0  0  0  0  0
  -21.6211   11.4617  -23.8518 N   0  0  0  0  0  0  0  0  0  0  0  0
  -22.6597   11.2075  -22.9025 C   0  0  0  0  0  0  0  0  0  0  0  0
  -21.3977   10.3673  -24.7463 C   0  0  0  0  0  0  0  0  0  0  0  0
  -20.4684   10.8384  -25.8756 C   0  0  0  0  0  0  0  0  0  0  0  0
  -13.4364   14.6242  -26.0252 N   0  0  0  0  0  0  0  0  0  0  0  0
  -12.6640   15.4732  -26.7608 C   0  0  0  0  0  0  0  0  0  0  0  0
  -12.1274   15.0407  -27.9400 C   0  0  0  0  0  0  0  0  0  0  0  0
   -9.4062   17.6815  -30.1237 C   0  0  0  0  0  0  0  0  0  0  0  0
  1  2  1  0
  2  3  2  0
  3  4  1  0
  4  5  2  0
  5  6  1  0
  6  7  1  0
  7  8  1  0
  8  9  2  0
  9 10  1  0
 10 11  2  0
 11 12  1  0
 12 13  2  0
 13 14  1  0
 14 15  1  0
 15 16  1  0
 16 17  1  0
 17 18  1  0
 18 19  1  0
 19 20  1  0
 20 21  1  0
 21 22  1  0
 22 23  1  0
 22 24  1  0
 24 25  1  0
 14 26  2  0
 26 27  1  0
 27 28  2  0
  6 29  2  0
 29  2  1  0
 28  8  1  0
 28 12  1  0
 25 19  1  0
M  END
$$$$
CHEMBL341522_diffdock_6
     RDKit          3D

 29 32  0  0  0  0  0  0  0  0999 V2000
   -8.6129   18.7337  -32.0315 C   0  0  0  0  0  0  0  0  0  0  0  0
   -9.3799   19.0021  -30.7762 C   0  0  0  0  0  0  0  0  0  0  0  0
   -9.3248   20.2533  -30.2025 C   0  0  0  0  0  0  0  0  0  0  0  0
  -10.0276   20.5020  -29.0500 C   0  0  0  0  0  0  0  0  0  0  0  0
  -10.7995   19.4821  -28.4603 C   0  0  0  0  0  0  0  0  0  0  0  0
  -10.8676   18.2402  -29.0098 C   0  0  0  0  0  0  0  0  0  0  0  0
  -11.6169   17.1808  -28.4452 N   0  0  0  0  0  0  0  0  0  0  0  0
  -11.5192   15.8233  -28.7782 C   0  0  0  0  0  0  0  0  0  0  0  0
  -10.4967   15.3590  -29.5106 N   0  0  0  0  0  0  0  0  0  0  0  0
  -10.3487   14.0722  -29.8609 C   0  0  0  0  0  0  0  0  0  0  0  0
  -11.2539   13.1636  -29.4766 N   0  0  0  0  0  0  0  0  0  0  0  0
  -12.2965   13.5535  -28.7463 C   0  0  0  0  0  0  0  0  0  0  0  0
  -13.2418   12.6104  -28.3413 C   0  0  0  0  0  0  0  0  0  0  0  0
  -14.3282   12.9913  -27.5827 C   0  0  0  0  0  0  0  0  0  0  0  0
  -15.2627   12.0158  -27.1902 N   0  0  0  0  0  0  0  0  0  0  0  0
  -15.1815   11.2757  -25.9518 C   0  0  0  0  0  0  0  0  0  0  0  0
  -16.1424   11.7774  -24.9168 C   0  0  0  0  0  0  0  0  0  0  0  0
  -16.9208   10.7550  -24.1781 C   0  0  0  0  0  0  0  0  0  0  0  0
  -18.3131   10.8655  -24.1174 N   0  0  0  0  0  0  0  0  0  0  0  0
  -18.9427   12.1263  -24.1465 C   0  0  0  0  0  0  0  0  0  0  0  0
  -20.1206   12.0354  -23.1484 C   0  0  0  0  0  0  0  0  0  0  0  0
  -20.9892   10.9959  -23.6991 N   0  0  0  0  0  0  0  0  0  0  0  0
  -22.2830   10.9713  -23.0909 C   0  0  0  0  0  0  0  0  0  0  0  0
  -20.3492    9.7160  -23.7096 C   0  0  0  0  0  0  0  0  0  0  0  0
  -19.1070    9.7958  -24.6104 C   0  0  0  0  0  0  0  0  0  0  0  0
  -14.4371   14.2746  -27.2573 N   0  0  0  0  0  0  0  0  0  0  0  0
  -13.5466   15.2396  -27.6236 C   0  0  0  0  0  0  0  0  0  0  0  0
  -12.4587   14.8981  -28.3755 C   0  0  0  0  0  0  0  0  0  0  0  0
  -10.1362   18.0316  -30.1833 C   0  0  0  0  0  0  0  0  0  0  0  0
  1  2  1  0
  2  3  2  0
  3  4  1  0
  4  5  2  0
  5  6  1  0
  6  7  1  0
  7  8  1  0
  8  9  2  0
  9 10  1  0
 10 11  2  0
 11 12  1  0
 12 13  2  0
 13 14  1  0
 14 15  1  0
 15 16  1  0
 16 17  1  0
 17 18  1  0
 18 19  1  0
 19 20  1  0
 20 21  1  0
 21 22  1  0
 22 23  1  0
 22 24  1  0
 24 25  1  0
 14 26  2  0
 26 27  1  0
 27 28  2  0
  6 29  2  0
 29  2  1  0
 28  8  1  0
 28 12  1  0
 25 19  1  0
M  END
$$$$
CHEMBL341522_diffdock_7
     RDKit          3D

 29 32  0  0  0  0  0  0  0  0999 V2000
   -9.7885   21.9392  -29.9603 C   0  0  0  0  0  0  0  0  0  0  0  0
   -9.5736   20.4594  -29.9716 C   0  0  0  0  0  0  0  0  0  0  0  0
   -8.4945   19.9364  -30.6497 C   0  0  0  0  0  0  0  0  0  0  0  0
   -8.2953   18.5784  -30.6619 C   0  0  0  0  0  0  0  0  0  0  0  0
   -9.1904   17.7277  -29.9843 C   0  0  0  0  0  0  0  0  0  0  0  0
  -10.2618   18.2231  -29.3091 C   0  0  0  0  0  0  0  0  0  0  0  0
  -11.1953   17.4069  -28.6273 N   0  0  0  0  0  0  0  0  0  0  0  0
  -11.3541   16.0227  -28.7756 C   0  0  0  0  0  0  0  0  0  0  0  0
  -10.5349   15.3092  -29.5611 N   0  0  0  0  0  0  0  0  0  0  0  0
  -10.6365   13.9836  -29.7428 C   0  0  0  0  0  0  0  0  0  0  0  0
  -11.6001   13.2928  -29.1209 N   0  0  0  0  0  0  0  0  0  0  0  0
  -12.4506   13.9367  -28.3244 C   0  0  0  0  0  0  0  0  0  0  0  0
  -13.4554   13.2213  -27.6720 C   0  0  0  0  0  0  0  0  0  0  0  0
  -14.3459   13.8672  -26.8408 C   0  0  0  0  0  0  0  0  0  0  0  0
  -15.3469   13.1169  -26.1976 N   0  0  0  0  0  0  0  0  0  0  0  0
  -15.5979   11.7183  -26.4597 C   0  0  0  0  0  0  0  0  0  0  0  0
  -16.9701   11.2899  -26.0354 C   0  0  0  0  0  0  0  0  0  0  0  0
  -17.3153    9.8627  -26.2368 C   0  0  0  0  0  0  0  0  0  0  0  0
  -18.3494    9.2953  -25.4863 N   0  0  0  0  0  0  0  0  0  0  0  0
  -18.6302    7.9162  -25.5644 C   0  0  0  0  0  0  0  0  0  0  0  0
  -20.1716    7.7944  -25.5278 C   0  0  0  0  0  0  0  0  0  0  0  0
  -20.5522    8.3403  -24.2257 N   0  0  0  0  0  0  0  0  0  0  0  0
  -21.9040    8.0400  -23.8694 C   0  0  0  0  0  0  0  0  0  0  0  0
  -20.2393    9.7326  -24.1186 C   0  0  0  0  0  0  0  0  0  0  0  0
  -18.7190    9.9061  -24.2583 C   0  0  0  0  0  0  0  0  0  0  0  0
  -14.2103   15.1798  -26.6881 N   0  0  0  0  0  0  0  0  0  0  0  0
  -13.2498   15.9304  -27.2985 C   0  0  0  0  0  0  0  0  0  0  0  0
  -12.3510   15.3236  -28.1289 C   0  0  0  0  0  0  0  0  0  0  0  0
  -10.4258   19.6118  -29.3231 C   0  0  0  0  0  0  0  0  0  0  0  0
  1  2  1  0
  2  3  2  0
  3  4  1  0
  4  5  2  0
  5  6  1  0
  6  7  1  0
  7  8  1  0
  8  9  2  0
  9 10  1  0
 10 11  2  0
 11 12  1  0
 12 13  2  0
 13 14  1  0
 14 15  1  0
 15 16  1  0
 16 17  1  0
 17 18  1  0
 18 19  1  0
 19 20  1  0
 20 21  1  0
 21 22  1  0
 22 23  1  0
 22 24  1  0
 24 25  1  0
 14 26  2  0
 26 27  1  0
 27 28  2  0
  6 29  2  0
 29  2  1  0
 28  8  1  0
 28 12  1  0
 25 19  1  0
M  END
$$$$
CHEMBL341522_diffdock_8
     RDKit          3D

 29 32  0  0  0  0  0  0  0  0999 V2000
   -9.9129   19.3184  -33.1773 C   0  0  0  0  0  0  0  0  0  0  0  0
  -10.2515   19.4884  -31.7308 C   0  0  0  0  0  0  0  0  0  0  0  0
   -9.7814   20.5896  -31.0494 C   0  0  0  0  0  0  0  0  0  0  0  0
  -10.0905   20.7476  -29.7215 C   0  0  0  0  0  0  0  0  0  0  0  0
  -10.8838   19.7882  -29.0625 C   0  0  0  0  0  0  0  0  0  0  0  0
  -11.3577   18.6940  -29.7161 C   0  0  0  0  0  0  0  0  0  0  0  0
  -12.1447   17.6969  -29.0924 N   0  0  0  0  0  0  0  0  0  0  0  0
  -12.0146   16.3115  -29.2564 C   0  0  0  0  0  0  0  0  0  0  0  0
  -11.0070   15.7872  -29.9685 N   0  0  0  0  0  0  0  0  0  0  0  0
  -10.8298   14.4711  -30.1607 C   0  0  0  0  0  0  0  0  0  0  0  0
  -11.6881   13.5933  -29.6265 N   0  0  0  0  0  0  0  0  0  0  0  0
  -12.7135   14.0429  -28.9063 C   0  0  0  0  0  0  0  0  0  0  0  0
  -13.6098   13.1323  -28.3454 C   0  0  0  0  0  0  0  0  0  0  0  0
  -14.6776   13.5755  -27.5941 C   0  0  0  0  0  0  0  0  0  0  0  0
  -15.5625   12.6315  -27.0421 N   0  0  0  0  0  0  0  0  0  0  0  0
  -15.2366   11.7839  -25.9182 C   0  0  0  0  0  0  0  0  0  0  0  0
  -16.4456   11.1311  -25.3194 C   0  0  0  0  0  0  0  0  0  0  0  0
  -16.2168   10.2461  -24.1527 C   0  0  0  0  0  0  0  0  0  0  0  0
  -17.3081    9.6200  -23.5432 N   0  0  0  0  0  0  0  0  0  0  0  0
  -18.4852    9.3460  -24.2685 C   0  0  0  0  0  0  0  0  0  0  0  0
  -19.6566    9.6308  -23.2995 C   0  0  0  0  0  0  0  0  0  0  0  0
  -19.4712    8.6751  -22.2084 N   0  0  0  0  0  0  0  0  0  0  0  0
  -20.6183    8.5669  -21.3617 C   0  0  0  0  0  0  0  0  0  0  0  0
  -18.2605    8.9187  -21.4853 C   0  0  0  0  0  0  0  0  0  0  0  0
  -17.0729    8.7496  -22.4455 C   0  0  0  0  0  0  0  0  0  0  0  0
  -14.8166   14.8860  -27.4279 N   0  0  0  0  0  0  0  0  0  0  0  0
  -13.9741   15.8216  -27.9507 C   0  0  0  0  0  0  0  0  0  0  0  0
  -12.9059   15.4185  -28.7004 C   0  0  0  0  0  0  0  0  0  0  0  0
  -11.0185   18.5735  -31.0674 C   0  0  0  0  0  0  0  0  0  0  0  0
  1  2  1  0
  2  3  2  0
  3  4  1  0
  4  5  2  0
  5  6  1  0
  6  7  1  0
  7  8  1  0
  8  9  2  0
  9 10  1  0
 10 11  2  0
 11 12  1  0
 12 13  2  0
 13 14  1  0
 14 15  1  0
 15 16  1  0
 16 17  1  0
 17 18  1  0
 18 19  1  0
 19 20  1  0
 20 21  1  0
 21 22  1  0
 22 23  1  0
 22 24  1  0
 24 25  1  0
 14 26  2  0
 26 27  1  0
 27 28  2  0
  6 29  2  0
 29  2  1  0
 28  8  1  0
 28 12  1  0
 25 19  1  0
M  END
$$$$
CHEMBL341522_diffdock_9
     RDKit          3D

 29 32  0  0  0  0  0  0  0  0999 V2000
   -4.4101   17.5199  -31.6509 C   0  0  0  0  0  0  0  0  0  0  0  0
   -5.8620   17.8650  -31.5572 C   0  0  0  0  0  0  0  0  0  0  0  0
   -6.2780   19.1385  -31.8782 C   0  0  0  0  0  0  0  0  0  0  0  0
   -7.6102   19.4579  -31.7926 C   0  0  0  0  0  0  0  0  0  0  0  0
   -8.5434   18.4874  -31.3790 C   0  0  0  0  0  0  0  0  0  0  0  0
   -8.1541   17.2248  -31.0575 C   0  0  0  0  0  0  0  0  0  0  0  0
   -9.0528   16.2218  -30.6228 N   0  0  0  0  0  0  0  0  0  0  0  0
  -10.1193   16.3911  -29.7299 C   0  0  0  0  0  0  0  0  0  0  0  0
  -10.4956   17.6106  -29.3196 N   0  0  0  0  0  0  0  0  0  0  0  0
  -11.5073   17.8361  -28.4674 C   0  0  0  0  0  0  0  0  0  0  0  0
  -12.2098   16.8092  -27.9730 N   0  0  0  0  0  0  0  0  0  0  0  0
  -11.8918   15.5689  -28.3372 C   0  0  0  0  0  0  0  0  0  0  0  0
  -12.6221   14.4951  -27.8266 C   0  0  0  0  0  0  0  0  0  0  0  0
  -12.3116   13.2023  -28.1918 C   0  0  0  0  0  0  0  0  0  0  0  0
  -13.0678   12.1422  -27.6596 N   0  0  0  0  0  0  0  0  0  0  0  0
  -14.2631   12.3241  -26.8684 C   0  0  0  0  0  0  0  0  0  0  0  0
  -15.3850   11.4320  -27.3064 C   0  0  0  0  0  0  0  0  0  0  0  0
  -16.6638   11.5570  -26.5676 C   0  0  0  0  0  0  0  0  0  0  0  0
  -17.1936   10.4367  -25.9204 N   0  0  0  0  0  0  0  0  0  0  0  0
  -17.6930    9.3428  -26.6559 C   0  0  0  0  0  0  0  0  0  0  0  0
  -18.9570    8.8667  -25.9025 C   0  0  0  0  0  0  0  0  0  0  0  0
  -18.4660    8.4446  -24.5914 N   0  0  0  0  0  0  0  0  0  0  0  0
  -19.4287    7.6877  -23.8533 C   0  0  0  0  0  0  0  0  0  0  0  0
  -17.9223    9.5395  -23.8473 C   0  0  0  0  0  0  0  0  0  0  0  0
  -16.7235   10.1108  -24.6202 C   0  0  0  0  0  0  0  0  0  0  0  0
  -11.3033   13.0228  -29.0378 N   0  0  0  0  0  0  0  0  0  0  0  0
  -10.5553   14.0314  -29.5685 C   0  0  0  0  0  0  0  0  0  0  0  0
  -10.8347   15.3244  -29.2285 C   0  0  0  0  0  0  0  0  0  0  0  0
   -6.7880   16.9435  -31.1591 C   0  0  0  0  0  0  0  0  0  0  0  0
  1  2  1  0
  2  3  2  0
  3  4  1  0
  4  5  2  0
  5  6  1  0
  6  7  1  0
  7  8  1  0
  8  9  2  0
  9 10  1  0
 10 11  2  0
 11 12  1  0
 12 13  2  0
 13 14  1  0
 14 15  1  0
 15 16  1  0
 16 17  1  0
 17 18  1  0
 18 19  1  0
 19 20  1  0
 20 21  1  0
 21 22  1  0
 22 23  1  0
 22 24  1  0
 24 25  1  0
 14 26  2  0
 26 27  1  0
 27 28  2  0
  6 29  2  0
 29  2  1  0
 28  8  1  0
 28 12  1  0
 25 19  1  0
M  END
$$$$
CHEMBL341522_diffdock_10
     RDKit          3D

 29 32  0  0  0  0  0  0  0  0999 V2000
-2663.1201 -275.7359  127.4721 C   0  0  0  0  0  0  0  0  0  0  0  0
-2663.8171 -276.3800  128.6284 C   0  0  0  0  0  0  0  0  0  0  0  0
-2665.1892 -276.5058  128.6083 C   0  0  0  0  0  0  0  0  0  0  0  0
-2665.8308 -277.0970  129.6688 C   0  0  0  0  0  0  0  0  0  0  0  0
-2665.0874 -277.5713  130.7674 C   0  0  0  0  0  0  0  0  0  0  0  0
-2663.7324 -277.4571  130.8072 C   0  0  0  0  0  0  0  0  0  0  0  0
-2662.9468 -277.9045  131.8962 N   0  0  0  0  0  0  0  0  0  0  0  0
-2661.7161 -277.3750  132.3058 C   0  0  0  0  0  0  0  0  0  0  0  0
-2661.0925 -276.4294  131.5882 N   0  0  0  0  0  0  0  0  0  0  0  0
-2659.9133 -275.8858  131.9287 C   0  0  0  0  0  0  0  0  0  0  0  0
-2659.2893 -276.2816  133.0446 N   0  0  0  0  0  0  0  0  0  0  0  0
-2659.8503 -277.2175  133.8068 C   0  0  0  0  0  0  0  0  0  0  0  0
-2659.2048 -277.6327  134.9720 C   0  0  0  0  0  0  0  0  0  0  0  0
-2659.7700 -278.5983  135.7779 C   0  0  0  0  0  0  0  0  0  0  0  0
-2659.0930 -278.9938  136.9458 N   0  0  0  0  0  0  0  0  0  0  0  0
-2657.6653 -279.2026  137.0178 C   0  0  0  0  0  0  0  0  0  0  0  0
-2657.2808 -280.6350  136.8008 C   0  0  0  0  0  0  0  0  0  0  0  0
-2656.1787 -281.1633  137.6372 C   0  0  0  0  0  0  0  0  0  0  0  0
-2656.0652 -280.7456  138.9666 N   0  0  0  0  0  0  0  0  0  0  0  0
-2656.1704 -281.6673  140.0282 C   0  0  0  0  0  0  0  0  0  0  0  0
-2656.9656 -280.9441  141.1408 C   0  0  0  0  0  0  0  0  0  0  0  0
-2656.1289 -279.8042  141.5094 N   0  0  0  0  0  0  0  0  0  0  0  0
-2656.5403 -279.1821  142.7295 C   0  0  0  0  0  0  0  0  0  0  0  0
-2655.9829 -278.8776  140.4290 C   0  0  0  0  0  0  0  0  0  0  0  0
-2655.2881 -279.5930  139.2589 C   0  0  0  0  0  0  0  0  0  0  0  0
-2660.9365 -279.1115  135.4050 N   0  0  0  0  0  0  0  0  0  0  0  0
-2661.6133 -278.7459  134.2791 C   0  0  0  0  0  0  0  0  0  0  0  0
-2661.0835 -277.7922  133.4580 C   0  0  0  0  0  0  0  0  0  0  0  0
-2663.1216 -276.8493  129.7062 C   0  0  0  0  0  0  0  0  0  0  0  0
  1  2  1  0
  2  3  2  0
  3  4  1  0
  4  5  2  0
  5  6  1  0
  6  7  1  0
  7  8  1  0
  8  9  2  0
  9 10  1  0
 10 11  2  0
 11 12  1  0
 12 13  2  0
 13 14  1  0
 14 15  1  0
 15 16  1  0
 16 17  1  0
 17 18  1  0
 18 19  1  0
 19 20  1  0
 20 21  1  0
 21 22  1  0
 22 23  1  0
 22 24  1  0
 24 25  1  0
 14 26  2  0
 26 27  1  0
 27 28  2  0
  6 29  2  0
 29  2  1  0
 28  8  1  0
 28 12  1  0
 25 19  1  0
M  END
$$$$
CHEMBL4068047_diffdock_1
     RDKit          3D

 43 47  0  0  0  0  0  0  0  0999 V2000
  -17.1525    8.3901  -25.6442 C   0  0  0  0  0  0  0  0  0  0  0  0
  -17.1525    9.4455  -26.4399 C   0  0  0  0  0  0  0  0  0  0  0  0
  -16.3854   10.6566  -26.2031 C   0  0  0  0  0  0  0  0  0  0  0  0
  -16.2626   11.1112  -25.0253 O   0  0  0  0  0  0  0  0  0  0  0  0
  -15.7632   11.3556  -27.2399 N   0  0  0  0  0  0  0  0  0  0  0  0
  -15.0628   12.5988  -27.0362 C   0  0  0  0  0  0  0  0  0  0  0  0
  -14.0150   12.9839  -27.8097 C   0  0  0  0  0  0  0  0  0  0  0  0
  -13.3149   14.1576  -27.6352 C   0  0  0  0  0  0  0  0  0  0  0  0
  -12.1986   14.4957  -28.4768 N   0  0  0  0  0  0  0  0  0  0  0  0
  -11.3895   13.5213  -28.9354 C   0  0  0  0  0  0  0  0  0  0  0  0
  -11.6064   12.3110  -28.6398 O   0  0  0  0  0  0  0  0  0  0  0  0
  -10.3095   13.7972  -29.7327 C   0  0  0  0  0  0  0  0  0  0  0  0
  -10.0235   15.0967  -30.0870 C   0  0  0  0  0  0  0  0  0  0  0  0
   -8.8780   15.4328  -30.9507 C   0  0  0  0  0  0  0  0  0  0  0  0
  -10.8639   16.0899  -29.6078 C   0  0  0  0  0  0  0  0  0  0  0  0
  -10.6500   17.4231  -29.9103 C   0  0  0  0  0  0  0  0  0  0  0  0
  -11.4885   18.3396  -29.4211 N   0  0  0  0  0  0  0  0  0  0  0  0
  -12.5399   18.0741  -28.6478 C   0  0  0  0  0  0  0  0  0  0  0  0
  -13.3886   19.0767  -28.1421 N   0  0  0  0  0  0  0  0  0  0  0  0
  -14.1410   19.0460  -26.9513 C   0  0  0  0  0  0  0  0  0  0  0  0
  -14.6998   17.9062  -26.4138 C   0  0  0  0  0  0  0  0  0  0  0  0
  -15.4528   17.9782  -25.2490 C   0  0  0  0  0  0  0  0  0  0  0  0
  -15.6741   19.1703  -24.5918 C   0  0  0  0  0  0  0  0  0  0  0  0
  -16.4649   19.1755  -23.3895 N   0  0  0  0  0  0  0  0  0  0  0  0
  -17.4965   20.1573  -23.2293 C   0  0  0  0  0  0  0  0  0  0  0  0
  -17.6317   20.4642  -21.7410 C   0  0  0  0  0  0  0  0  0  0  0  0
  -18.0785   19.2616  -21.0970 N   0  0  0  0  0  4  0  0  0  0  0  0
  -18.3099   19.5488  -19.6972 C   0  0  0  0  0  0  0  0  0  0  0  0
  -17.1556   18.1783  -21.2126 C   0  0  0  0  0  0  0  0  0  0  0  0
  -16.2290   18.1983  -22.3579 C   0  0  0  0  0  0  0  0  0  0  0  0
  -15.1193   20.2875  -25.1283 C   0  0  0  0  0  0  0  0  0  0  0  0
  -14.3574   20.2541  -26.2912 C   0  0  0  0  0  0  0  0  0  0  0  0
  -13.8086   21.4058  -26.8064 O   0  0  0  0  0  0  0  0  0  0  0  0
  -13.0258   22.2264  -25.9649 C   0  0  0  0  0  0  0  0  0  0  0  0
  -12.7488   16.7542  -28.3502 N   0  0  0  0  0  0  0  0  0  0  0  0
  -11.9369   15.7840  -28.8130 C   0  0  0  0  0  0  0  0  0  0  0  0
  -13.7386   14.9693  -26.5968 C   0  0  0  0  0  0  0  0  0  0  0  0
  -14.8094   14.6097  -25.7837 C   0  0  0  0  0  0  0  0  0  0  0  0
  -15.2429   15.4806  -24.6834 C   0  0  0  0  0  0  0  0  0  0  0  0
  -16.5541   15.2409  -24.3665 F   0  0  0  0  0  0  0  0  0  0  0  0
  -14.4833   15.2846  -23.5400 F   0  0  0  0  0  0  0  0  0  0  0  0
  -15.1077   16.8218  -25.0191 F   0  0  0  0  0  0  0  0  0  0  0  0
  -15.4840   13.4043  -26.0059 C   0  0  0  0  0  0  0  0  0  0  0  0
  1  2  2  0
  2  3  1  0
  3  4  2  0
  3  5  1  0
  5  6  1  0
  6  7  2  0
  7  8  1  0
  8  9  1  0
  9 10  1  0
 10 11  2  0
 10 12  1  0
 12 13  2  0
 13 14  1  0
 13 15  1  0
 15 16  2  0
 16 17  1  0
 17 18  2  0
 18 19  1  0
 19 20  1  0
 20 21  2  0
 21 22  1  0
 22 23  2  0
 23 24  1  0
 24 25  1  0
 25 26  1  0
 26 27  1  0
 27 28  1  0
 27 29  1  0
 29 30  1  0
 23 31  1  0
 31 32  2  0
 32 33  1  0
 33 34  1  0
 18 35  1  0
 35 36  2  0
  8 37  2  0
 37 38  1  0
 38 39  1  0
 39 40  1  0
 39 41  1  0
 39 42  1  0
 38 43  2  0
 43  6  1  0
 36  9  1  0
 36 15  1  0
 32 20  1  0
 30 24  1  0
M  CHG  1  27   1
M  END
$$$$
CHEMBL4068047_diffdock_2
     RDKit          3D

 43 47  0  0  0  0  0  0  0  0999 V2000
  -15.1253   15.9643  -20.6436 C   0  0  0  0  0  0  0  0  0  0  0  0
  -14.3609   15.6943  -21.6874 C   0  0  0  0  0  0  0  0  0  0  0  0
  -14.4248   16.3941  -22.9592 C   0  0  0  0  0  0  0  0  0  0  0  0
  -15.5492   16.6849  -23.4690 O   0  0  0  0  0  0  0  0  0  0  0  0
  -13.2753   16.7693  -23.6583 N   0  0  0  0  0  0  0  0  0  0  0  0
  -13.3075   17.2529  -25.0158 C   0  0  0  0  0  0  0  0  0  0  0  0
  -12.3933   16.8791  -25.9479 C   0  0  0  0  0  0  0  0  0  0  0  0
  -12.3860   17.3313  -27.2493 C   0  0  0  0  0  0  0  0  0  0  0  0
  -11.3741   16.9125  -28.1817 N   0  0  0  0  0  0  0  0  0  0  0  0
  -10.4989   17.8145  -28.6663 C   0  0  0  0  0  0  0  0  0  0  0  0
  -10.5531   19.0247  -28.3034 O   0  0  0  0  0  0  0  0  0  0  0  0
   -9.5238   17.4629  -29.5629 C   0  0  0  0  0  0  0  0  0  0  0  0
   -9.4167   16.1598  -29.9948 C   0  0  0  0  0  0  0  0  0  0  0  0
   -8.3757   15.7404  -30.9496 C   0  0  0  0  0  0  0  0  0  0  0  0
  -10.3240   15.2417  -29.4886 C   0  0  0  0  0  0  0  0  0  0  0  0
  -10.2927   13.9119  -29.8699 C   0  0  0  0  0  0  0  0  0  0  0  0
  -11.1911   13.0700  -29.3536 N   0  0  0  0  0  0  0  0  0  0  0  0
  -12.1384   13.4086  -28.4807 C   0  0  0  0  0  0  0  0  0  0  0  0
  -13.0748   12.4878  -27.9745 N   0  0  0  0  0  0  0  0  0  0  0  0
  -14.1952   12.7586  -27.1643 C   0  0  0  0  0  0  0  0  0  0  0  0
  -14.3603   13.9108  -26.4257 C   0  0  0  0  0  0  0  0  0  0  0  0
  -15.4869   14.0770  -25.6305 C   0  0  0  0  0  0  0  0  0  0  0  0
  -16.4707   13.1144  -25.5429 C   0  0  0  0  0  0  0  0  0  0  0  0
  -17.6126   13.3491  -24.6992 N   0  0  0  0  0  0  0  0  0  0  0  0
  -17.7093   14.5798  -23.9713 C   0  0  0  0  0  0  0  0  0  0  0  0
  -18.4723   14.3071  -22.6786 C   0  0  0  0  0  0  0  0  0  0  0  0
  -19.8046   13.9177  -23.0445 N   0  0  0  0  0  4  0  0  0  0  0  0
  -20.5817   13.7468  -21.8352 C   0  0  0  0  0  0  0  0  0  0  0  0
  -19.8546   12.7162  -23.8142 C   0  0  0  0  0  0  0  0  0  0  0  0
  -18.6548   12.3606  -24.5918 C   0  0  0  0  0  0  0  0  0  0  0  0
  -16.2996   11.9833  -26.2745 C   0  0  0  0  0  0  0  0  0  0  0  0
  -15.1866   11.7825  -27.0836 C   0  0  0  0  0  0  0  0  0  0  0  0
  -15.0463   10.6244  -27.8128 O   0  0  0  0  0  0  0  0  0  0  0  0
  -16.1631    9.7739  -27.9678 C   0  0  0  0  0  0  0  0  0  0  0  0
  -12.1668   14.7250  -28.1055 N   0  0  0  0  0  0  0  0  0  0  0  0
  -11.2879   15.6222  -28.5926 C   0  0  0  0  0  0  0  0  0  0  0  0
  -13.3918   18.2196  -27.5895 C   0  0  0  0  0  0  0  0  0  0  0  0
  -14.3477   18.6249  -26.6627 C   0  0  0  0  0  0  0  0  0  0  0  0
  -15.4055   19.5717  -27.0394 C   0  0  0  0  0  0  0  0  0  0  0  0
  -15.4137   19.7714  -28.3948 F   0  0  0  0  0  0  0  0  0  0  0  0
  -16.6614   19.1179  -26.6658 F   0  0  0  0  0  0  0  0  0  0  0  0
  -15.2295   20.7991  -26.4130 F   0  0  0  0  0  0  0  0  0  0  0  0
  -14.3062   18.1341  -25.3532 C   0  0  0  0  0  0  0  0  0  0  0  0
  1  2  2  0
  2  3  1  0
  3  4  2  0
  3  5  1  0
  5  6  1  0
  6  7  2  0
  7  8  1  0
  8  9  1  0
  9 10  1  0
 10 11  2  0
 10 12  1  0
 12 13  2  0
 13 14  1  0
 13 15  1  0
 15 16  2  0
 16 17  1  0
 17 18  2  0
 18 19  1  0
 19 20  1  0
 20 21  2  0
 21 22  1  0
 22 23  2  0
 23 24  1  0
 24 25  1  0
 25 26  1  0
 26 27  1  0
 27 28  1  0
 27 29  1  0
 29 30  1  0
 23 31  1  0
 31 32  2  0
 32 33  1  0
 33 34  1  0
 18 35  1  0
 35 36  2  0
  8 37  2  0
 37 38  1  0
 38 39  1  0
 39 40  1  0
 39 41  1  0
 39 42  1  0
 38 43  2  0
 43  6  1  0
 36  9  1  0
 36 15  1  0
 32 20  1  0
 30 24  1  0
M  CHG  1  27   1
M  END
$$$$
CHEMBL4068047_diffdock_3
     RDKit          3D

 43 47  0  0  0  0  0  0  0  0999 V2000
  -12.8684   17.7373  -20.0398 C   0  0  0  0  0  0  0  0  0  0  0  0
  -12.2444   17.7364  -21.2049 C   0  0  0  0  0  0  0  0  0  0  0  0
  -12.9076   17.6547  -22.4952 C   0  0  0  0  0  0  0  0  0  0  0  0
  -13.9988   18.2714  -22.6893 O   0  0  0  0  0  0  0  0  0  0  0  0
  -12.3819   16.9106  -23.5539 N   0  0  0  0  0  0  0  0  0  0  0  0
  -12.8482   17.0429  -24.9114 C   0  0  0  0  0  0  0  0  0  0  0  0
  -12.0819   16.7158  -25.9838 C   0  0  0  0  0  0  0  0  0  0  0  0
  -12.4900   16.8418  -27.2936 C   0  0  0  0  0  0  0  0  0  0  0  0
  -11.6193   16.4980  -28.3855 N   0  0  0  0  0  0  0  0  0  0  0  0
  -10.8375   17.4448  -28.9392 C   0  0  0  0  0  0  0  0  0  0  0  0
  -10.8556   18.6317  -28.5032 O   0  0  0  0  0  0  0  0  0  0  0  0
   -9.9989   17.1652  -29.9865 C   0  0  0  0  0  0  0  0  0  0  0  0
   -9.9372   15.8906  -30.5037 C   0  0  0  0  0  0  0  0  0  0  0  0
   -9.0409   15.5479  -31.6220 C   0  0  0  0  0  0  0  0  0  0  0  0
  -10.7474   14.9257  -29.9249 C   0  0  0  0  0  0  0  0  0  0  0  0
  -10.7528   13.6199  -30.3827 C   0  0  0  0  0  0  0  0  0  0  0  0
  -11.5538   12.7307  -29.7909 N   0  0  0  0  0  0  0  0  0  0  0  0
  -12.3682   12.9992  -28.7717 C   0  0  0  0  0  0  0  0  0  0  0  0
  -13.2071   12.0310  -28.1890 N   0  0  0  0  0  0  0  0  0  0  0  0
  -14.2285   12.2372  -27.2407 C   0  0  0  0  0  0  0  0  0  0  0  0
  -14.3631   13.3779  -26.4784 C   0  0  0  0  0  0  0  0  0  0  0  0
  -15.3866   13.4793  -25.5451 C   0  0  0  0  0  0  0  0  0  0  0  0
  -16.2951   12.4620  -25.3401 C   0  0  0  0  0  0  0  0  0  0  0  0
  -17.3315   12.6309  -24.3562 N   0  0  0  0  0  0  0  0  0  0  0  0
  -17.7529   11.5046  -23.5767 C   0  0  0  0  0  0  0  0  0  0  0  0
  -19.2276   11.6911  -23.2332 C   0  0  0  0  0  0  0  0  0  0  0  0
  -19.3264   12.8540  -22.3974 N   0  0  0  0  0  4  0  0  0  0  0  0
  -20.7032   13.0002  -21.9746 C   0  0  0  0  0  0  0  0  0  0  0  0
  -18.8977   14.0544  -23.0405 C   0  0  0  0  0  0  0  0  0  0  0  0
  -17.9360   13.9218  -24.1487 C   0  0  0  0  0  0  0  0  0  0  0  0
  -16.1550   11.3427  -26.0959 C   0  0  0  0  0  0  0  0  0  0  0  0
  -15.1447   11.2060  -27.0417 C   0  0  0  0  0  0  0  0  0  0  0  0
  -15.0331   10.0579  -27.7915 O   0  0  0  0  0  0  0  0  0  0  0  0
  -16.1991    9.3182  -28.0876 C   0  0  0  0  0  0  0  0  0  0  0  0
  -12.3605   14.2920  -28.3212 N   0  0  0  0  0  0  0  0  0  0  0  0
  -11.5754   15.2344  -28.8782 C   0  0  0  0  0  0  0  0  0  0  0  0
  -13.7694   17.3342  -27.4867 C   0  0  0  0  0  0  0  0  0  0  0  0
  -14.5853   17.6787  -26.4130 C   0  0  0  0  0  0  0  0  0  0  0  0
  -15.9386   18.2041  -26.6360 C   0  0  0  0  0  0  0  0  0  0  0  0
  -16.6643   17.3490  -27.4230 F   0  0  0  0  0  0  0  0  0  0  0  0
  -16.6272   18.3785  -25.4451 F   0  0  0  0  0  0  0  0  0  0  0  0
  -15.9009   19.4480  -27.2532 F   0  0  0  0  0  0  0  0  0  0  0  0
  -14.1182   17.5311  -25.1025 C   0  0  0  0  0  0  0  0  0  0  0  0
  1  2  2  0
  2  3  1  0
  3  4  2  0
  3  5  1  0
  5  6  1  0
  6  7  2  0
  7  8  1  0
  8  9  1  0
  9 10  1  0
 10 11  2  0
 10 12  1  0
 12 13  2  0
 13 14  1  0
 13 15  1  0
 15 16  2  0
 16 17  1  0
 17 18  2  0
 18 19  1  0
 19 20  1  0
 20 21  2  0
 21 22  1  0
 22 23  2  0
 23 24  1  0
 24 25  1  0
 25 26  1  0
 26 27  1  0
 27 28  1  0
 27 29  1  0
 29 30  1  0
 23 31  1  0
 31 32  2  0
 32 33  1  0
 33 34  1  0
 18 35  1  0
 35 36  2  0
  8 37  2  0
 37 38  1  0
 38 39  1  0
 39 40  1  0
 39 41  1  0
 39 42  1  0
 38 43  2  0
 43  6  1  0
 36  9  1  0
 36 15  1  0
 32 20  1  0
 30 24  1  0
M  CHG  1  27   1
M  END
$$$$
CHEMBL4068047_diffdock_4
     RDKit          3D

 43 47  0  0  0  0  0  0  0  0999 V2000
  -20.0068   15.3189  -24.6625 C   0  0  0  0  0  0  0  0  0  0  0  0
  -19.0845   16.2572  -24.7878 C   0  0  0  0  0  0  0  0  0  0  0  0
  -17.6656   16.0000  -24.9670 C   0  0  0  0  0  0  0  0  0  0  0  0
  -17.0524   15.2326  -24.1646 O   0  0  0  0  0  0  0  0  0  0  0  0
  -16.9332   16.5736  -26.0088 N   0  0  0  0  0  0  0  0  0  0  0  0
  -15.5281   16.8772  -25.9035 C   0  0  0  0  0  0  0  0  0  0  0  0
  -14.6574   16.6775  -26.9264 C   0  0  0  0  0  0  0  0  0  0  0  0
  -13.3074   16.9437  -26.8564 C   0  0  0  0  0  0  0  0  0  0  0  0
  -12.4350   16.6878  -27.9709 N   0  0  0  0  0  0  0  0  0  0  0  0
  -11.7049   17.6929  -28.4914 C   0  0  0  0  0  0  0  0  0  0  0  0
  -11.7728   18.8581  -28.0046 O   0  0  0  0  0  0  0  0  0  0  0  0
  -10.8671   17.4976  -29.5582 C   0  0  0  0  0  0  0  0  0  0  0  0
  -10.7526   16.2503  -30.1302 C   0  0  0  0  0  0  0  0  0  0  0  0
   -9.8551   15.9978  -31.2713 C   0  0  0  0  0  0  0  0  0  0  0  0
  -11.5099   15.2248  -29.5852 C   0  0  0  0  0  0  0  0  0  0  0  0
  -11.4603   13.9407  -30.0984 C   0  0  0  0  0  0  0  0  0  0  0  0
  -12.2118   12.9906  -29.5372 N   0  0  0  0  0  0  0  0  0  0  0  0
  -13.0253   13.1773  -28.4992 C   0  0  0  0  0  0  0  0  0  0  0  0
  -13.8111   12.1469  -27.9499 N   0  0  0  0  0  0  0  0  0  0  0  0
  -14.7571   12.2481  -26.9107 C   0  0  0  0  0  0  0  0  0  0  0  0
  -14.8221   13.2964  -26.0178 C   0  0  0  0  0  0  0  0  0  0  0  0
  -15.7724   13.2952  -25.0050 C   0  0  0  0  0  0  0  0  0  0  0  0
  -16.6744   12.2638  -24.8475 C   0  0  0  0  0  0  0  0  0  0  0  0
  -17.6331   12.3240  -23.7760 N   0  0  0  0  0  0  0  0  0  0  0  0
  -18.2199   11.1114  -23.2870 C   0  0  0  0  0  0  0  0  0  0  0  0
  -19.6274   11.4316  -22.7930 C   0  0  0  0  0  0  0  0  0  0  0  0
  -19.4942   12.3254  -21.6777 N   0  0  0  0  0  4  0  0  0  0  0  0
  -20.8098   12.5703  -21.1256 C   0  0  0  0  0  0  0  0  0  0  0  0
  -18.8828   13.5703  -22.0167 C   0  0  0  0  0  0  0  0  0  0  0  0
  -17.9953   13.5902  -23.1925 C   0  0  0  0  0  0  0  0  0  0  0  0
  -16.6031   11.2360  -25.7320 C   0  0  0  0  0  0  0  0  0  0  0  0
  -15.6673   11.2036  -26.7601 C   0  0  0  0  0  0  0  0  0  0  0  0
  -15.6244   10.1466  -27.6397 O   0  0  0  0  0  0  0  0  0  0  0  0
  -16.5549    9.0946  -27.4911 C   0  0  0  0  0  0  0  0  0  0  0  0
  -13.0722   14.4487  -27.9937 N   0  0  0  0  0  0  0  0  0  0  0  0
  -12.3385   15.4497  -28.5177 C   0  0  0  0  0  0  0  0  0  0  0  0
  -12.8492   17.4478  -25.6512 C   0  0  0  0  0  0  0  0  0  0  0  0
  -13.7110   17.6678  -24.5807 C   0  0  0  0  0  0  0  0  0  0  0  0
  -13.2072   18.1990  -23.3074 C   0  0  0  0  0  0  0  0  0  0  0  0
  -13.2696   19.5676  -23.2974 F   0  0  0  0  0  0  0  0  0  0  0  0
  -13.9383   17.7291  -22.2268 F   0  0  0  0  0  0  0  0  0  0  0  0
  -11.8905   17.8151  -23.0870 F   0  0  0  0  0  0  0  0  0  0  0  0
  -15.0739   17.3781  -24.7074 C   0  0  0  0  0  0  0  0  0  0  0  0
  1  2  2  0
  2  3  1  0
  3  4  2  0
  3  5  1  0
  5  6  1  0
  6  7  2  0
  7  8  1  0
  8  9  1  0
  9 10  1  0
 10 11  2  0
 10 12  1  0
 12 13  2  0
 13 14  1  0
 13 15  1  0
 15 16  2  0
 16 17  1  0
 17 18  2  0
 18 19  1  0
 19 20  1  0
 20 21  2  0
 21 22  1  0
 22 23  2  0
 23 24  1  0
 24 25  1  0
 25 26  1  0
 26 27  1  0
 27 28  1  0
 27 29  1  0
 29 30  1  0
 23 31  1  0
 31 32  2  0
 32 33  1  0
 33 34  1  0
 18 35  1  0
 35 36  2  0
  8 37  2  0
 37 38  1  0
 38 39  1  0
 39 40  1  0
 39 41  1  0
 39 42  1  0
 38 43  2  0
 43  6  1  0
 36  9  1  0
 36 15  1  0
 32 20  1  0
 30 24  1  0
M  CHG  1  27   1
M  END
$$$$
CHEMBL4068047_diffdock_5
     RDKit          3D

 43 47  0  0  0  0  0  0  0  0999 V2000
  -19.8705   16.1422  -25.6605 C   0  0  0  0  0  0  0  0  0  0  0  0
  -18.6974   16.0493  -25.0588 C   0  0  0  0  0  0  0  0  0  0  0  0
  -17.5157   16.8065  -25.4348 C   0  0  0  0  0  0  0  0  0  0  0  0
  -17.3749   18.0033  -25.0390 O   0  0  0  0  0  0  0  0  0  0  0  0
  -16.5059   16.2598  -26.2298 N   0  0  0  0  0  0  0  0  0  0  0  0
  -15.1142   16.6005  -26.0722 C   0  0  0  0  0  0  0  0  0  0  0  0
  -14.1830   16.3344  -27.0242 C   0  0  0  0  0  0  0  0  0  0  0  0
  -12.8438   16.6338  -26.9015 C   0  0  0  0  0  0  0  0  0  0  0  0
  -11.9047   16.3041  -27.9399 N   0  0  0  0  0  0  0  0  0  0  0  0
  -11.1251   17.2686  -28.4654 C   0  0  0  0  0  0  0  0  0  0  0  0
  -11.2050   18.4601  -28.0492 O   0  0  0  0  0  0  0  0  0  0  0  0
  -10.2226   17.0026  -29.4619 C   0  0  0  0  0  0  0  0  0  0  0  0
  -10.0921   15.7238  -29.9554 C   0  0  0  0  0  0  0  0  0  0  0  0
   -9.1261   15.3957  -31.0187 C   0  0  0  0  0  0  0  0  0  0  0  0
  -10.9008   14.7407  -29.4061 C   0  0  0  0  0  0  0  0  0  0  0  0
  -10.8395   13.4293  -29.8433 C   0  0  0  0  0  0  0  0  0  0  0  0
  -11.6421   12.5222  -29.2816 N   0  0  0  0  0  0  0  0  0  0  0  0
  -12.5186   12.7776  -28.3118 C   0  0  0  0  0  0  0  0  0  0  0  0
  -13.3561   11.7903  -27.7599 N   0  0  0  0  0  0  0  0  0  0  0  0
  -14.4242   11.9741  -26.8596 C   0  0  0  0  0  0  0  0  0  0  0  0
  -14.5808   13.0823  -26.0548 C   0  0  0  0  0  0  0  0  0  0  0  0
  -15.6519   13.1621  -25.1743 C   0  0  0  0  0  0  0  0  0  0  0  0
  -16.5874   12.1546  -25.0648 C   0  0  0  0  0  0  0  0  0  0  0  0
  -17.6729   12.2999  -24.1314 N   0  0  0  0  0  0  0  0  0  0  0  0
  -17.5150   13.1597  -22.9958 C   0  0  0  0  0  0  0  0  0  0  0  0
  -18.3575   12.5976  -21.8549 C   0  0  0  0  0  0  0  0  0  0  0  0
  -19.7317   12.6722  -22.2634 N   0  0  0  0  0  4  0  0  0  0  0  0
  -20.5628   12.2359  -21.1614 C   0  0  0  0  0  0  0  0  0  0  0  0
  -20.0248   11.8862  -23.4187 C   0  0  0  0  0  0  0  0  0  0  0  0
  -18.9117   11.5946  -24.3388 C   0  0  0  0  0  0  0  0  0  0  0  0
  -16.4252   11.0674  -25.8619 C   0  0  0  0  0  0  0  0  0  0  0  0
  -15.3672   10.9531  -26.7572 C   0  0  0  0  0  0  0  0  0  0  0  0
  -15.2344    9.8374  -27.5511 O   0  0  0  0  0  0  0  0  0  0  0  0
  -16.1754    8.7919  -27.4248 C   0  0  0  0  0  0  0  0  0  0  0  0
  -12.5769   14.0760  -27.8814 N   0  0  0  0  0  0  0  0  0  0  0  0
  -11.7936   15.0361  -28.4100 C   0  0  0  0  0  0  0  0  0  0  0  0
  -12.4639   17.2462  -25.7195 C   0  0  0  0  0  0  0  0  0  0  0  0
  -13.3892   17.5366  -24.7213 C   0  0  0  0  0  0  0  0  0  0  0  0
  -12.9682   18.1827  -23.4713 C   0  0  0  0  0  0  0  0  0  0  0  0
  -11.6960   17.8004  -23.1356 F   0  0  0  0  0  0  0  0  0  0  0  0
  -12.9870   19.5655  -23.5732 F   0  0  0  0  0  0  0  0  0  0  0  0
  -13.8190   17.8549  -22.4232 F   0  0  0  0  0  0  0  0  0  0  0  0
  -14.7377   17.2088  -24.8991 C   0  0  0  0  0  0  0  0  0  0  0  0
  1  2  2  0
  2  3  1  0
  3  4  2  0
  3  5  1  0
  5  6  1  0
  6  7  2  0
  7  8  1  0
  8  9  1  0
  9 10  1  0
 10 11  2  0
 10 12  1  0
 12 13  2  0
 13 14  1  0
 13 15  1  0
 15 16  2  0
 16 17  1  0
 17 18  2  0
 18 19  1  0
 19 20  1  0
 20 21  2  0
 21 22  1  0
 22 23  2  0
 23 24  1  0
 24 25  1  0
 25 26  1  0
 26 27  1  0
 27 28  1  0
 27 29  1  0
 29 30  1  0
 23 31  1  0
 31 32  2  0
 32 33  1  0
 33 34  1  0
 18 35  1  0
 35 36  2  0
  8 37  2  0
 37 38  1  0
 38 39  1  0
 39 40  1  0
 39 41  1  0
 39 42  1  0
 38 43  2  0
 43  6  1  0
 36  9  1  0
 36 15  1  0
 32 20  1  0
 30 24  1  0
M  CHG  1  27   1
M  END
$$$$
CHEMBL4068047_diffdock_6
     RDKit          3D

 43 47  0  0  0  0  0  0  0  0999 V2000
  -14.4629   15.8016  -20.2999 C   0  0  0  0  0  0  0  0  0  0  0  0
  -13.7788   16.6492  -21.0486 C   0  0  0  0  0  0  0  0  0  0  0  0
  -14.1007   16.9769  -22.4271 C   0  0  0  0  0  0  0  0  0  0  0  0
  -15.2523   16.7161  -22.8903 O   0  0  0  0  0  0  0  0  0  0  0  0
  -13.1758   17.5813  -23.2815 N   0  0  0  0  0  0  0  0  0  0  0  0
  -13.3687   17.6704  -24.7072 C   0  0  0  0  0  0  0  0  0  0  0  0
  -12.4107   17.3092  -25.5995 C   0  0  0  0  0  0  0  0  0  0  0  0
  -12.5559   17.3935  -26.9670 C   0  0  0  0  0  0  0  0  0  0  0  0
  -11.4918   17.0150  -27.8576 N   0  0  0  0  0  0  0  0  0  0  0  0
  -10.6317   17.9500  -28.3050 C   0  0  0  0  0  0  0  0  0  0  0  0
  -10.7457   19.1564  -27.9433 O   0  0  0  0  0  0  0  0  0  0  0  0
   -9.6084   17.6371  -29.1612 C   0  0  0  0  0  0  0  0  0  0  0  0
   -9.4353   16.3400  -29.5897 C   0  0  0  0  0  0  0  0  0  0  0  0
   -8.3412   15.9619  -30.5014 C   0  0  0  0  0  0  0  0  0  0  0  0
  -10.3278   15.3876  -29.1220 C   0  0  0  0  0  0  0  0  0  0  0  0
  -10.2315   14.0609  -29.5031 C   0  0  0  0  0  0  0  0  0  0  0  0
  -11.1183   13.1848  -29.0249 N   0  0  0  0  0  0  0  0  0  0  0  0
  -12.1125   13.4858  -28.1912 C   0  0  0  0  0  0  0  0  0  0  0  0
  -13.0339   12.5297  -27.7248 N   0  0  0  0  0  0  0  0  0  0  0  0
  -14.1696   12.7509  -26.9208 C   0  0  0  0  0  0  0  0  0  0  0  0
  -14.4247   13.9227  -26.2411 C   0  0  0  0  0  0  0  0  0  0  0  0
  -15.5582   14.0386  -25.4468 C   0  0  0  0  0  0  0  0  0  0  0  0
  -16.4606   13.0056  -25.3022 C   0  0  0  0  0  0  0  0  0  0  0  0
  -17.6146   13.1909  -24.4628 N   0  0  0  0  0  0  0  0  0  0  0  0
  -18.1734   14.5021  -24.3131 C   0  0  0  0  0  0  0  0  0  0  0  0
  -18.7898   14.5985  -22.9209 C   0  0  0  0  0  0  0  0  0  0  0  0
  -19.8748   13.6600  -22.8696 N   0  0  0  0  0  4  0  0  0  0  0  0
  -20.5417   13.7982  -21.5922 C   0  0  0  0  0  0  0  0  0  0  0  0
  -19.4626   12.3043  -23.0452 C   0  0  0  0  0  0  0  0  0  0  0  0
  -18.2100   12.0684  -23.7842 C   0  0  0  0  0  0  0  0  0  0  0  0
  -16.2012   11.8556  -25.9760 C   0  0  0  0  0  0  0  0  0  0  0  0
  -15.0785   11.7036  -26.7824 C   0  0  0  0  0  0  0  0  0  0  0  0
  -14.8475   10.5242  -27.4522 O   0  0  0  0  0  0  0  0  0  0  0  0
  -15.9504    9.7719  -27.9130 C   0  0  0  0  0  0  0  0  0  0  0  0
  -12.2051   14.7993  -27.8161 N   0  0  0  0  0  0  0  0  0  0  0  0
  -11.3410   15.7297  -28.2659 C   0  0  0  0  0  0  0  0  0  0  0  0
  -13.7703   17.8797  -27.4202 C   0  0  0  0  0  0  0  0  0  0  0  0
  -14.7769   18.2583  -26.5369 C   0  0  0  0  0  0  0  0  0  0  0  0
  -16.0579   18.7765  -27.0349 C   0  0  0  0  0  0  0  0  0  0  0  0
  -16.0067   20.1387  -27.1714 F   0  0  0  0  0  0  0  0  0  0  0  0
  -16.3895   18.2348  -28.2676 F   0  0  0  0  0  0  0  0  0  0  0  0
  -17.0997   18.4576  -26.1731 F   0  0  0  0  0  0  0  0  0  0  0  0
  -14.5743   18.1524  -25.1566 C   0  0  0  0  0  0  0  0  0  0  0  0
  1  2  2  0
  2  3  1  0
  3  4  2  0
  3  5  1  0
  5  6  1  0
  6  7  2  0
  7  8  1  0
  8  9  1  0
  9 10  1  0
 10 11  2  0
 10 12  1  0
 12 13  2  0
 13 14  1  0
 13 15  1  0
 15 16  2  0
 16 17  1  0
 17 18  2  0
 18 19  1  0
 19 20  1  0
 20 21  2  0
 21 22  1  0
 22 23  2  0
 23 24  1  0
 24 25  1  0
 25 26  1  0
 26 27  1  0
 27 28  1  0
 27 29  1  0
 29 30  1  0
 23 31  1  0
 31 32  2  0
 32 33  1  0
 33 34  1  0
 18 35  1  0
 35 36  2  0
  8 37  2  0
 37 38  1  0
 38 39  1  0
 39 40  1  0
 39 41  1  0
 39 42  1  0
 38 43  2  0
 43  6  1  0
 36  9  1  0
 36 15  1  0
 32 20  1  0
 30 24  1  0
M  CHG  1  27   1
M  END
$$$$
CHEMBL4068047_diffdock_7
     RDKit          3D

 43 47  0  0  0  0  0  0  0  0999 V2000
  -14.2801   17.7315  -19.4204 C   0  0  0  0  0  0  0  0  0  0  0  0
  -13.7235   17.3027  -20.5399 C   0  0  0  0  0  0  0  0  0  0  0  0
  -14.2547   17.5456  -21.8704 C   0  0  0  0  0  0  0  0  0  0  0  0
  -15.4774   17.3168  -22.1183 O   0  0  0  0  0  0  0  0  0  0  0  0
  -13.4587   18.0321  -22.9098 N   0  0  0  0  0  0  0  0  0  0  0  0
  -13.7269   17.7527  -24.2982 C   0  0  0  0  0  0  0  0  0  0  0  0
  -12.7450   17.4550  -25.1879 C   0  0  0  0  0  0  0  0  0  0  0  0
  -12.9636   17.1959  -26.5233 C   0  0  0  0  0  0  0  0  0  0  0  0
  -11.8749   16.9088  -27.4183 N   0  0  0  0  0  0  0  0  0  0  0  0
  -11.0015   17.8823  -27.7405 C   0  0  0  0  0  0  0  0  0  0  0  0
  -11.1247   19.0446  -27.2575 O   0  0  0  0  0  0  0  0  0  0  0  0
   -9.9544   17.6571  -28.5955 C   0  0  0  0  0  0  0  0  0  0  0  0
   -9.7704   16.4115  -29.1528 C   0  0  0  0  0  0  0  0  0  0  0  0
   -8.6510   16.1269  -30.0679 C   0  0  0  0  0  0  0  0  0  0  0  0
  -10.6767   15.4187  -28.8132 C   0  0  0  0  0  0  0  0  0  0  0  0
  -10.5707   14.1389  -29.3286 C   0  0  0  0  0  0  0  0  0  0  0  0
  -11.4715   13.2210  -28.9704 N   0  0  0  0  0  0  0  0  0  0  0  0
  -12.4888   13.4367  -28.1381 C   0  0  0  0  0  0  0  0  0  0  0  0
  -13.4241   12.4404  -27.8010 N   0  0  0  0  0  0  0  0  0  0  0  0
  -14.5778   12.5786  -27.0041 C   0  0  0  0  0  0  0  0  0  0  0  0
  -14.8426   13.6678  -26.2017 C   0  0  0  0  0  0  0  0  0  0  0  0
  -15.9944   13.7024  -25.4264 C   0  0  0  0  0  0  0  0  0  0  0  0
  -16.9060   12.6674  -25.4215 C   0  0  0  0  0  0  0  0  0  0  0  0
  -18.0791   12.7661  -24.5940 N   0  0  0  0  0  0  0  0  0  0  0  0
  -18.9310   11.6239  -24.4408 C   0  0  0  0  0  0  0  0  0  0  0  0
  -20.3575   12.1216  -24.2289 C   0  0  0  0  0  0  0  0  0  0  0  0
  -20.3772   12.8426  -22.9878 N   0  0  0  0  0  4  0  0  0  0  0  0
  -21.7402   13.2440  -22.7112 C   0  0  0  0  0  0  0  0  0  0  0  0
  -19.5338   13.9947  -22.9862 C   0  0  0  0  0  0  0  0  0  0  0  0
  -18.3923   13.9987  -23.9177 C   0  0  0  0  0  0  0  0  0  0  0  0
  -16.6370   11.5992  -26.2154 C   0  0  0  0  0  0  0  0  0  0  0  0
  -15.4958   11.5301  -27.0072 C   0  0  0  0  0  0  0  0  0  0  0  0
  -15.2555   10.4326  -27.8012 O   0  0  0  0  0  0  0  0  0  0  0  0
  -16.3450    9.6330  -28.2112 C   0  0  0  0  0  0  0  0  0  0  0  0
  -12.5910   14.7038  -27.6300 N   0  0  0  0  0  0  0  0  0  0  0  0
  -11.7136   15.6730  -27.9549 C   0  0  0  0  0  0  0  0  0  0  0  0
  -14.2811   17.2498  -26.9450 C   0  0  0  0  0  0  0  0  0  0  0  0
  -15.3149   17.5497  -26.0627 C   0  0  0  0  0  0  0  0  0  0  0  0
  -16.7069   17.6072  -26.5280 C   0  0  0  0  0  0  0  0  0  0  0  0
  -16.7745   18.1597  -27.7799 F   0  0  0  0  0  0  0  0  0  0  0  0
  -17.2847   16.3479  -26.5839 F   0  0  0  0  0  0  0  0  0  0  0  0
  -17.4946   18.3626  -25.6686 F   0  0  0  0  0  0  0  0  0  0  0  0
  -15.0347   17.8058  -24.7161 C   0  0  0  0  0  0  0  0  0  0  0  0
  1  2  2  0
  2  3  1  0
  3  4  2  0
  3  5  1  0
  5  6  1  0
  6  7  2  0
  7  8  1  0
  8  9  1  0
  9 10  1  0
 10 11  2  0
 10 12  1  0
 12 13  2  0
 13 14  1  0
 13 15  1  0
 15 16  2  0
 16 17  1  0
 17 18  2  0
 18 19  1  0
 19 20  1  0
 20 21  2  0
 21 22  1  0
 22 23  2  0
 23 24  1  0
 24 25  1  0
 25 26  1  0
 26 27  1  0
 27 28  1  0
 27 29  1  0
 29 30  1  0
 23 31  1  0
 31 32  2  0
 32 33  1  0
 33 34  1  0
 18 35  1  0
 35 36  2  0
  8 37  2  0
 37 38  1  0
 38 39  1  0
 39 40  1  0
 39 41  1  0
 39 42  1  0
 38 43  2  0
 43  6  1  0
 36  9  1  0
 36 15  1  0
 32 20  1  0
 30 24  1  0
M  CHG  1  27   1
M  END
$$$$
CHEMBL4068047_diffdock_8
     RDKit          3D

 43 47  0  0  0  0  0  0  0  0999 V2000
  -15.9847   15.0062  -20.4278 C   0  0  0  0  0  0  0  0  0  0  0  0
  -14.8900   15.2743  -21.1181 C   0  0  0  0  0  0  0  0  0  0  0  0
  -14.8761   15.8706  -22.4430 C   0  0  0  0  0  0  0  0  0  0  0  0
  -15.9674   16.1507  -23.0256 O   0  0  0  0  0  0  0  0  0  0  0  0
  -13.6859   16.1557  -23.1160 N   0  0  0  0  0  0  0  0  0  0  0  0
  -13.6512   16.6618  -24.4653 C   0  0  0  0  0  0  0  0  0  0  0  0
  -12.7227   16.2635  -25.3728 C   0  0  0  0  0  0  0  0  0  0  0  0
  -12.6519   16.7355  -26.6653 C   0  0  0  0  0  0  0  0  0  0  0  0
  -11.6279   16.2881  -27.5707 N   0  0  0  0  0  0  0  0  0  0  0  0
  -10.8070   17.1874  -28.1466 C   0  0  0  0  0  0  0  0  0  0  0  0
  -10.9227   18.4209  -27.8929 O   0  0  0  0  0  0  0  0  0  0  0  0
   -9.8229   16.8081  -29.0218 C   0  0  0  0  0  0  0  0  0  0  0  0
   -9.6501   15.4788  -29.3366 C   0  0  0  0  0  0  0  0  0  0  0  0
   -8.5971   15.0302  -30.2646 C   0  0  0  0  0  0  0  0  0  0  0  0
  -10.5020   14.5637  -28.7372 C   0  0  0  0  0  0  0  0  0  0  0  0
  -10.4029   13.2084  -28.9982 C   0  0  0  0  0  0  0  0  0  0  0  0
  -11.2498   12.3704  -28.3957 N   0  0  0  0  0  0  0  0  0  0  0  0
  -12.2057   12.7362  -27.5433 C   0  0  0  0  0  0  0  0  0  0  0  0
  -13.0865   11.8169  -26.9434 N   0  0  0  0  0  0  0  0  0  0  0  0
  -14.2373   12.1005  -26.1815 C   0  0  0  0  0  0  0  0  0  0  0  0
  -14.4474   13.2804  -25.5003 C   0  0  0  0  0  0  0  0  0  0  0  0
  -15.6019   13.4588  -24.7490 C   0  0  0  0  0  0  0  0  0  0  0  0
  -16.5700   12.4815  -24.6497 C   0  0  0  0  0  0  0  0  0  0  0  0
  -17.7426   12.7301  -23.8534 N   0  0  0  0  0  0  0  0  0  0  0  0
  -18.5503   11.6264  -23.4254 C   0  0  0  0  0  0  0  0  0  0  0  0
  -19.9936   12.1088  -23.3181 C   0  0  0  0  0  0  0  0  0  0  0  0
  -20.0353   13.1003  -22.2809 N   0  0  0  0  0  4  0  0  0  0  0  0
  -21.4114   13.5067  -22.0889 C   0  0  0  0  0  0  0  0  0  0  0  0
  -19.2360   14.2497  -22.5607 C   0  0  0  0  0  0  0  0  0  0  0  0
  -18.0992   14.0753  -23.4816 C   0  0  0  0  0  0  0  0  0  0  0  0
  -16.3546   11.3231  -25.3245 C   0  0  0  0  0  0  0  0  0  0  0  0
  -15.2125   11.1093  -26.0887 C   0  0  0  0  0  0  0  0  0  0  0  0
  -15.0273    9.9234  -26.7610 O   0  0  0  0  0  0  0  0  0  0  0  0
  -16.0589    8.9590  -26.7439 C   0  0  0  0  0  0  0  0  0  0  0  0
  -12.3012   14.0777  -27.2873 N   0  0  0  0  0  0  0  0  0  0  0  0
  -11.4764   14.9723  -27.8653 C   0  0  0  0  0  0  0  0  0  0  0  0
  -13.6067   17.6719  -27.0233 C   0  0  0  0  0  0  0  0  0  0  0  0
  -14.5752   18.1036  -26.1218 C   0  0  0  0  0  0  0  0  0  0  0  0
  -15.5781   19.1012  -26.5170 C   0  0  0  0  0  0  0  0  0  0  0  0
  -16.3275   19.4859  -25.4364 F   0  0  0  0  0  0  0  0  0  0  0  0
  -14.9922   20.2359  -27.0575 F   0  0  0  0  0  0  0  0  0  0  0  0
  -16.4321   18.5989  -27.4906 F   0  0  0  0  0  0  0  0  0  0  0  0
  -14.5992   17.5907  -24.8203 C   0  0  0  0  0  0  0  0  0  0  0  0
  1  2  2  0
  2  3  1  0
  3  4  2  0
  3  5  1  0
  5  6  1  0
  6  7  2  0
  7  8  1  0
  8  9  1  0
  9 10  1  0
 10 11  2  0
 10 12  1  0
 12 13  2  0
 13 14  1  0
 13 15  1  0
 15 16  2  0
 16 17  1  0
 17 18  2  0
 18 19  1  0
 19 20  1  0
 20 21  2  0
 21 22  1  0
 22 23  2  0
 23 24  1  0
 24 25  1  0
 25 26  1  0
 26 27  1  0
 27 28  1  0
 27 29  1  0
 29 30  1  0
 23 31  1  0
 31 32  2  0
 32 33  1  0
 33 34  1  0
 18 35  1  0
 35 36  2  0
  8 37  2  0
 37 38  1  0
 38 39  1  0
 39 40  1  0
 39 41  1  0
 39 42  1  0
 38 43  2  0
 43  6  1  0
 36  9  1  0
 36 15  1  0
 32 20  1  0
 30 24  1  0
M  CHG  1  27   1
M  END
$$$$
CHEMBL4068047_diffdock_9
     RDKit          3D

 43 47  0  0  0  0  0  0  0  0999 V2000
  -19.9776   18.2058  -25.4825 C   0  0  0  0  0  0  0  0  0  0  0  0
  -18.7342   18.6398  -25.3698 C   0  0  0  0  0  0  0  0  0  0  0  0
  -17.5922   17.7975  -25.0572 C   0  0  0  0  0  0  0  0  0  0  0  0
  -17.3958   17.4092  -23.8658 O   0  0  0  0  0  0  0  0  0  0  0  0
  -16.6828   17.3877  -26.0349 N   0  0  0  0  0  0  0  0  0  0  0  0
  -15.2547   17.4907  -25.8682 C   0  0  0  0  0  0  0  0  0  0  0  0
  -14.3826   17.2988  -26.8914 C   0  0  0  0  0  0  0  0  0  0  0  0
  -13.0128   17.3763  -26.7652 C   0  0  0  0  0  0  0  0  0  0  0  0
  -12.1431   17.1395  -27.8861 N   0  0  0  0  0  0  0  0  0  0  0  0
  -11.4356   18.1594  -28.4089 C   0  0  0  0  0  0  0  0  0  0  0  0
  -11.5224   19.3220  -27.9189 O   0  0  0  0  0  0  0  0  0  0  0  0
  -10.6013   17.9825  -29.4817 C   0  0  0  0  0  0  0  0  0  0  0  0
  -10.4670   16.7389  -30.0575 C   0  0  0  0  0  0  0  0  0  0  0  0
   -9.5725   16.5061  -31.2050 C   0  0  0  0  0  0  0  0  0  0  0  0
  -11.2012   15.6980  -29.5100 C   0  0  0  0  0  0  0  0  0  0  0  0
  -11.1307   14.4163  -30.0267 C   0  0  0  0  0  0  0  0  0  0  0  0
  -11.8603   13.4508  -29.4628 N   0  0  0  0  0  0  0  0  0  0  0  0
  -12.6703   13.6196  -28.4190 C   0  0  0  0  0  0  0  0  0  0  0  0
  -13.4328   12.5733  -27.8671 N   0  0  0  0  0  0  0  0  0  0  0  0
  -14.4614   12.6718  -26.9092 C   0  0  0  0  0  0  0  0  0  0  0  0
  -14.6420   13.7508  -26.0704 C   0  0  0  0  0  0  0  0  0  0  0  0
  -15.6683   13.7458  -25.1347 C   0  0  0  0  0  0  0  0  0  0  0  0
  -16.5344   12.6806  -25.0025 C   0  0  0  0  0  0  0  0  0  0  0  0
  -17.5763   12.7389  -24.0116 N   0  0  0  0  0  0  0  0  0  0  0  0
  -18.4367   11.6078  -23.8269 C   0  0  0  0  0  0  0  0  0  0  0  0
  -19.8018   12.1191  -23.3772 C   0  0  0  0  0  0  0  0  0  0  0  0
  -19.6234   12.7380  -22.0943 N   0  0  0  0  0  4  0  0  0  0  0  0
  -20.9200   13.1467  -21.5971 C   0  0  0  0  0  0  0  0  0  0  0  0
  -18.7496   13.8667  -22.1243 C   0  0  0  0  0  0  0  0  0  0  0  0
  -17.7500   13.9199  -23.2053 C   0  0  0  0  0  0  0  0  0  0  0  0
  -16.3491   11.6227  -25.8333 C   0  0  0  0  0  0  0  0  0  0  0  0
  -15.3346   11.5929  -26.7839 C   0  0  0  0  0  0  0  0  0  0  0  0
  -15.1766   10.5048  -27.6108 O   0  0  0  0  0  0  0  0  0  0  0  0
  -16.0861    9.4293  -27.5075 C   0  0  0  0  0  0  0  0  0  0  0  0
  -12.7379   14.8888  -27.9101 N   0  0  0  0  0  0  0  0  0  0  0  0
  -12.0268   15.9047  -28.4365 C   0  0  0  0  0  0  0  0  0  0  0  0
  -12.5349   17.6729  -25.5002 C   0  0  0  0  0  0  0  0  0  0  0  0
  -13.3972   17.8779  -24.4272 C   0  0  0  0  0  0  0  0  0  0  0  0
  -12.8730   18.1874  -23.0905 C   0  0  0  0  0  0  0  0  0  0  0  0
  -12.7519   17.0452  -22.3437 F   0  0  0  0  0  0  0  0  0  0  0  0
  -11.6270   18.7928  -23.1523 F   0  0  0  0  0  0  0  0  0  0  0  0
  -13.7054   19.0707  -22.4149 F   0  0  0  0  0  0  0  0  0  0  0  0
  -14.7809   17.7856  -24.6127 C   0  0  0  0  0  0  0  0  0  0  0  0
  1  2  2  0
  2  3  1  0
  3  4  2  0
  3  5  1  0
  5  6  1  0
  6  7  2  0
  7  8  1  0
  8  9  1  0
  9 10  1  0
 10 11  2  0
 10 12  1  0
 12 13  2  0
 13 14  1  0
 13 15  1  0
 15 16  2  0
 16 17  1  0
 17 18  2  0
 18 19  1  0
 19 20  1  0
 20 21  2  0
 21 22  1  0
 22 23  2  0
 23 24  1  0
 24 25  1  0
 25 26  1  0
 26 27  1  0
 27 28  1  0
 27 29  1  0
 29 30  1  0
 23 31  1  0
 31 32  2  0
 32 33  1  0
 33 34  1  0
 18 35  1  0
 35 36  2  0
  8 37  2  0
 37 38  1  0
 38 39  1  0
 39 40  1  0
 39 41  1  0
 39 42  1  0
 38 43  2  0
 43  6  1  0
 36  9  1  0
 36 15  1  0
 32 20  1  0
 30 24  1  0
M  CHG  1  27   1
M  END
$$$$
CHEMBL4068047_diffdock_10
     RDKit          3D

 43 47  0  0  0  0  0  0  0  0999 V2000
  -75.7659  118.6873  -28.2104 C   0  0  0  0  0  0  0  0  0  0  0  0
  -75.3585  117.6407  -27.5134 C   0  0  0  0  0  0  0  0  0  0  0  0
  -74.8881  116.3951  -28.0952 C   0  0  0  0  0  0  0  0  0  0  0  0
  -75.5922  115.7919  -28.9608 O   0  0  0  0  0  0  0  0  0  0  0  0
  -73.6664  115.8223  -27.7344 N   0  0  0  0  0  0  0  0  0  0  0  0
  -73.3288  114.4511  -28.0233 C   0  0  0  0  0  0  0  0  0  0  0  0
  -72.9862  113.5622  -27.0555 C   0  0  0  0  0  0  0  0  0  0  0  0
  -72.6452  112.2492  -27.2966 C   0  0  0  0  0  0  0  0  0  0  0  0
  -72.2698  111.3646  -26.2265 N   0  0  0  0  0  0  0  0  0  0  0  0
  -73.1404  111.1165  -25.2291 C   0  0  0  0  0  0  0  0  0  0  0  0
  -74.2880  111.6477  -25.2284 O   0  0  0  0  0  0  0  0  0  0  0  0
  -72.8231  110.2875  -24.1850 C   0  0  0  0  0  0  0  0  0  0  0  0
  -71.5877  109.6815  -24.1320 C   0  0  0  0  0  0  0  0  0  0  0  0
  -71.2128  108.7758  -23.0318 C   0  0  0  0  0  0  0  0  0  0  0  0
  -70.7010  109.9457  -25.1645 C   0  0  0  0  0  0  0  0  0  0  0  0
  -69.4370  109.3831  -25.1910 C   0  0  0  0  0  0  0  0  0  0  0  0
  -68.6217  109.6725  -26.2078 N   0  0  0  0  0  0  0  0  0  0  0  0
  -68.9283  110.4762  -27.2247 C   0  0  0  0  0  0  0  0  0  0  0  0
  -68.0290  110.7644  -28.2683 N   0  0  0  0  0  0  0  0  0  0  0  0
  -68.3025  111.4301  -29.4795 C   0  0  0  0  0  0  0  0  0  0  0  0
  -69.0011  112.6146  -29.5751 C   0  0  0  0  0  0  0  0  0  0  0  0
  -69.2489  113.1827  -30.8180 C   0  0  0  0  0  0  0  0  0  0  0  0
  -68.8185  112.5975  -31.9903 C   0  0  0  0  0  0  0  0  0  0  0  0
  -69.1096  113.2381  -33.2456 N   0  0  0  0  0  0  0  0  0  0  0  0
  -69.1255  112.4577  -34.4475 C   0  0  0  0  0  0  0  0  0  0  0  0
  -68.6915  113.3561  -35.6017 C   0  0  0  0  0  0  0  0  0  0  0  0
  -69.6866  114.3812  -35.7410 N   0  0  0  0  0  4  0  0  0  0  0  0
  -69.3522  115.1927  -36.8921 C   0  0  0  0  0  0  0  0  0  0  0  0
  -69.8065  115.2174  -34.5899 C   0  0  0  0  0  0  0  0  0  0  0  0
  -69.3910  114.6499  -33.2953 C   0  0  0  0  0  0  0  0  0  0  0  0
  -68.1307  111.4314  -31.8862 C   0  0  0  0  0  0  0  0  0  0  0  0
  -67.8613  110.8342  -30.6595 C   0  0  0  0  0  0  0  0  0  0  0  0
  -67.1600  109.6526  -30.5908 O   0  0  0  0  0  0  0  0  0  0  0  0
  -67.8684  108.4322  -30.6481 C   0  0  0  0  0  0  0  0  0  0  0  0
  -70.1794  111.0313  -27.1956 N   0  0  0  0  0  0  0  0  0  0  0  0
  -71.0464  110.7784  -26.1960 C   0  0  0  0  0  0  0  0  0  0  0  0
  -72.6678  111.8491  -28.6217 C   0  0  0  0  0  0  0  0  0  0  0  0
  -73.0155  112.7304  -29.6412 C   0  0  0  0  0  0  0  0  0  0  0  0
  -73.0299  112.2905  -31.0425 C   0  0  0  0  0  0  0  0  0  0  0  0
  -73.6325  113.2301  -31.8368 F   0  0  0  0  0  0  0  0  0  0  0  0
  -71.7493  112.0758  -31.5292 F   0  0  0  0  0  0  0  0  0  0  0  0
  -73.7109  111.0882  -31.1860 F   0  0  0  0  0  0  0  0  0  0  0  0
  -73.3520  114.0543  -29.3385 C   0  0  0  0  0  0  0  0  0  0  0  0
  1  2  2  0
  2  3  1  0
  3  4  2  0
  3  5  1  0
  5  6  1  0
  6  7  2  0
  7  8  1  0
  8  9  1  0
  9 10  1  0
 10 11  2  0
 10 12  1  0
 12 13  2  0
 13 14  1  0
 13 15  1  0
 15 16  2  0
 16 17  1  0
 17 18  2  0
 18 19  1  0
 19 20  1  0
 20 21  2  0
 21 22  1  0
 22 23  2  0
 23 24  1  0
 24 25  1  0
 25 26  1  0
 26 27  1  0
 27 28  1  0
 27 29  1  0
 29 30  1  0
 23 31  1  0
 31 32  2  0
 32 33  1  0
 33 34  1  0
 18 35  1  0
 35 36  2  0
  8 37  2  0
 37 38  1  0
 38 39  1  0
 39 40  1  0
 39 41  1  0
 39 42  1  0
 38 43  2  0
 43  6  1  0
 36  9  1  0
 36 15  1  0
 32 20  1  0
 30 24  1  0
M  CHG  1  27   1
M  END
$$$$
CHEMBL166093_diffdock_1
     RDKit          3D

 24 26  0  0  0  0  0  0  0  0999 V2000
  -14.0528   19.4333  -23.7024 O   0  0  0  0  0  0  0  0  0  0  0  0
  -15.2541   19.0040  -24.2311 C   0  0  0  0  0  0  0  0  0  0  0  0
  -15.2770   17.5389  -24.5431 C   0  0  2  0  0  0  0  0  0  0  0  0
  -14.0765   16.9724  -24.1109 O   0  0  0  0  0  0  0  0  0  0  0  0
  -15.4322   17.2921  -26.0364 C   0  0  0  0  0  0  0  0  0  0  0  0
  -15.6129   15.8966  -26.3224 N   0  0  0  0  0  0  0  0  0  0  0  0
  -14.6135   15.1383  -26.9564 C   0  0  0  0  0  0  0  0  0  0  0  0
  -13.5890   15.8532  -27.5618 C   0  0  0  0  0  0  0  0  0  0  0  0
  -12.6107   15.1610  -28.2053 C   0  0  0  0  0  0  0  0  0  0  0  0
  -11.5790   15.8723  -28.8192 C   0  0  0  0  0  0  0  0  0  0  0  0
  -11.5109   17.2743  -28.7333 N   0  0  0  0  0  0  0  0  0  0  0  0
  -10.6165   18.1363  -29.3764 C   0  0  0  0  0  0  0  0  0  0  0  0
  -10.3352   19.3357  -28.6961 C   0  0  0  0  0  0  0  0  0  0  0  0
   -9.5184   20.2848  -29.2454 C   0  0  0  0  0  0  0  0  0  0  0  0
   -8.9531   20.0774  -30.4898 C   0  0  0  0  0  0  0  0  0  0  0  0
   -9.2161   18.9223  -31.1554 C   0  0  0  0  0  0  0  0  0  0  0  0
   -8.4287   18.6217  -32.8753 Br  0  0  0  0  0  0  0  0  0  0  0  0
  -10.0506   17.9388  -30.6082 C   0  0  0  0  0  0  0  0  0  0  0  0
  -10.6227   15.1647  -29.4577 N   0  0  0  0  0  0  0  0  0  0  0  0
  -10.6342   13.8205  -29.5170 C   0  0  0  0  0  0  0  0  0  0  0  0
  -11.6157   13.1247  -28.9295 N   0  0  0  0  0  0  0  0  0  0  0  0
  -12.5943   13.7844  -28.2793 C   0  0  0  0  0  0  0  0  0  0  0  0
  -13.6307   13.1141  -27.6621 C   0  0  0  0  0  0  0  0  0  0  0  0
  -14.6084   13.8016  -27.0195 N   0  0  0  0  0  0  0  0  0  0  0  0
  1  2  1  0
  2  3  1  0
  3  4  1  6
  3  5  1  0
  5  6  1  0
  6  7  1  0
  7  8  2  0
  8  9  1  0
  9 10  2  0
 10 11  1  0
 11 12  1  0
 12 13  2  0
 13 14  1  0
 14 15  2  0
 15 16  1  0
 16 17  1  0
 16 18  2  0
 10 19  1  0
 19 20  2  0
 20 21  1  0
 21 22  2  0
 22 23  1  0
 23 24  2  0
 24  7  1  0
 22  9  1  0
 18 12  1  0
M  END
$$$$
CHEMBL166093_diffdock_2
     RDKit          3D

 24 26  0  0  0  0  0  0  0  0999 V2000
  -15.3969   18.5726  -23.0184 O   0  0  0  0  0  0  0  0  0  0  0  0
  -14.3321   18.2039  -23.8165 C   0  0  0  0  0  0  0  0  0  0  0  0
  -14.3602   16.7604  -24.2164 C   0  0  2  0  0  0  0  0  0  0  0  0
  -13.1095   16.2000  -23.9510 O   0  0  0  0  0  0  0  0  0  0  0  0
  -14.6706   16.6010  -25.6974 C   0  0  0  0  0  0  0  0  0  0  0  0
  -14.8162   15.2188  -26.0580 N   0  0  0  0  0  0  0  0  0  0  0  0
  -13.8778   14.5675  -26.8773 C   0  0  0  0  0  0  0  0  0  0  0  0
  -12.9632   15.3806  -27.5326 C   0  0  0  0  0  0  0  0  0  0  0  0
  -12.0493   14.7950  -28.3525 C   0  0  0  0  0  0  0  0  0  0  0  0
  -11.1285   15.6057  -29.0174 C   0  0  0  0  0  0  0  0  0  0  0  0
  -11.0999   16.9961  -28.8089 N   0  0  0  0  0  0  0  0  0  0  0  0
  -10.3382   17.9551  -29.4847 C   0  0  0  0  0  0  0  0  0  0  0  0
   -9.8279   18.9962  -28.6871 C   0  0  0  0  0  0  0  0  0  0  0  0
   -9.1134   20.0235  -29.2383 C   0  0  0  0  0  0  0  0  0  0  0  0
   -8.8811   20.0541  -30.6007 C   0  0  0  0  0  0  0  0  0  0  0  0
   -9.3675   19.0533  -31.3808 C   0  0  0  0  0  0  0  0  0  0  0  0
   -9.0415   19.0820  -33.2680 Br  0  0  0  0  0  0  0  0  0  0  0  0
  -10.1017   17.9930  -30.8335 C   0  0  0  0  0  0  0  0  0  0  0  0
  -10.2353   15.0032  -29.8311 N   0  0  0  0  0  0  0  0  0  0  0  0
  -10.2065   13.6706  -30.0149 C   0  0  0  0  0  0  0  0  0  0  0  0
  -11.0814   12.8801  -29.3807 N   0  0  0  0  0  0  0  0  0  0  0  0
  -11.9936   13.4327  -28.5572 C   0  0  0  0  0  0  0  0  0  0  0  0
  -12.9201   12.6624  -27.8846 C   0  0  0  0  0  0  0  0  0  0  0  0
  -13.8333   13.2435  -27.0661 N   0  0  0  0  0  0  0  0  0  0  0  0
  1  2  1  0
  2  3  1  0
  3  4  1  6
  3  5  1  0
  5  6  1  0
  6  7  1  0
  7  8  2  0
  8  9  1  0
  9 10  2  0
 10 11  1  0
 11 12  1  0
 12 13  2  0
 13 14  1  0
 14 15  2  0
 15 16  1  0
 16 17  1  0
 16 18  2  0
 10 19  1  0
 19 20  2  0
 20 21  1  0
 21 22  2  0
 22 23  1  0
 23 24  2  0
 24  7  1  0
 22  9  1  0
 18 12  1  0
M  END
$$$$
CHEMBL166093_diffdock_3
     RDKit          3D

 24 26  0  0  0  0  0  0  0  0999 V2000
  -15.6979   19.5845  -26.6124 O   0  0  0  0  0  0  0  0  0  0  0  0
  -15.2368   18.6940  -25.6630 C   0  0  0  0  0  0  0  0  0  0  0  0
  -15.5039   17.2617  -26.0114 C   0  0  2  0  0  0  0  0  0  0  0  0
  -16.6992   16.8710  -25.4051 O   0  0  0  0  0  0  0  0  0  0  0  0
  -14.3827   16.3546  -25.5267 C   0  0  0  0  0  0  0  0  0  0  0  0
  -14.6399   14.9803  -25.8541 N   0  0  0  0  0  0  0  0  0  0  0  0
  -13.8723   14.2939  -26.8110 C   0  0  0  0  0  0  0  0  0  0  0  0
  -12.9069   15.0384  -27.4751 C   0  0  0  0  0  0  0  0  0  0  0  0
  -12.1542   14.4201  -28.4246 C   0  0  0  0  0  0  0  0  0  0  0  0
  -11.1839   15.1622  -29.0991 C   0  0  0  0  0  0  0  0  0  0  0  0
  -10.9414   16.5085  -28.7734 N   0  0  0  0  0  0  0  0  0  0  0  0
  -10.1614   17.4382  -29.4690 C   0  0  0  0  0  0  0  0  0  0  0  0
   -9.6347   18.4883  -28.6942 C   0  0  0  0  0  0  0  0  0  0  0  0
   -8.9008   19.4898  -29.2669 C   0  0  0  0  0  0  0  0  0  0  0  0
   -8.6648   19.4850  -30.6290 C   0  0  0  0  0  0  0  0  0  0  0  0
   -9.1669   18.4751  -31.3872 C   0  0  0  0  0  0  0  0  0  0  0  0
   -8.8359   18.4545  -33.2736 Br  0  0  0  0  0  0  0  0  0  0  0  0
   -9.9210   17.4407  -30.8177 C   0  0  0  0  0  0  0  0  0  0  0  0
  -10.4535   14.5295  -30.0420 N   0  0  0  0  0  0  0  0  0  0  0  0
  -10.6291   13.2299  -30.3433 C   0  0  0  0  0  0  0  0  0  0  0  0
  -11.5538   12.5045  -29.7018 N   0  0  0  0  0  0  0  0  0  0  0  0
  -12.3092   13.0898  -28.7518 C   0  0  0  0  0  0  0  0  0  0  0  0
  -13.2788   12.3874  -28.0656 C   0  0  0  0  0  0  0  0  0  0  0  0
  -14.0316   13.0013  -27.1180 N   0  0  0  0  0  0  0  0  0  0  0  0
  1  2  1  0
  2  3  1  0
  3  4  1  1
  3  5  1  0
  5  6  1  0
  6  7  1  0
  7  8  2  0
  8  9  1  0
  9 10  2  0
 10 11  1  0
 11 12  1  0
 12 13  2  0
 13 14  1  0
 14 15  2  0
 15 16  1  0
 16 17  1  0
 16 18  2  0
 10 19  1  0
 19 20  2  0
 20 21  1  0
 21 22  2  0
 22 23  1  0
 23 24  2  0
 24  7  1  0
 22  9  1  0
 18 12  1  0
M  END
$$$$
CHEMBL166093_diffdock_4
     RDKit          3D

 24 26  0  0  0  0  0  0  0  0999 V2000
  -14.8505   20.1132  -26.9625 O   0  0  0  0  0  0  0  0  0  0  0  0
  -15.0471   19.3561  -25.8245 C   0  0  0  0  0  0  0  0  0  0  0  0
  -15.3827   17.9248  -26.1128 C   0  0  2  0  0  0  0  0  0  0  0  0
  -16.6830   17.6743  -25.6710 O   0  0  0  0  0  0  0  0  0  0  0  0
  -14.4269   16.9773  -25.4033 C   0  0  0  0  0  0  0  0  0  0  0  0
  -14.7076   15.6070  -25.7282 N   0  0  0  0  0  0  0  0  0  0  0  0
  -13.8963   14.8781  -26.6148 C   0  0  0  0  0  0  0  0  0  0  0  0
  -12.9234   15.5992  -27.2936 C   0  0  0  0  0  0  0  0  0  0  0  0
  -12.1284   14.9382  -28.1777 C   0  0  0  0  0  0  0  0  0  0  0  0
  -11.1502   15.6565  -28.8664 C   0  0  0  0  0  0  0  0  0  0  0  0
  -10.9435   17.0253  -28.6189 N   0  0  0  0  0  0  0  0  0  0  0  0
  -10.0975   17.9076  -29.2989 C   0  0  0  0  0  0  0  0  0  0  0  0
   -9.5857   18.9700  -28.5308 C   0  0  0  0  0  0  0  0  0  0  0  0
   -8.7908   19.9298  -29.0933 C   0  0  0  0  0  0  0  0  0  0  0  0
   -8.4767   19.8696  -30.4382 C   0  0  0  0  0  0  0  0  0  0  0  0
   -8.9637   18.8474  -31.1896 C   0  0  0  0  0  0  0  0  0  0  0  0
   -8.5251   18.7501  -33.0515 Br  0  0  0  0  0  0  0  0  0  0  0  0
   -9.7797   17.8552  -30.6304 C   0  0  0  0  0  0  0  0  0  0  0  0
  -10.3774   14.9812  -29.7437 N   0  0  0  0  0  0  0  0  0  0  0  0
  -10.5190   13.6620  -29.9678 C   0  0  0  0  0  0  0  0  0  0  0  0
  -11.4508   12.9593  -29.3116 N   0  0  0  0  0  0  0  0  0  0  0  0
  -12.2479   13.5872  -28.4249 C   0  0  0  0  0  0  0  0  0  0  0  0
  -13.2265   12.9094  -27.7270 C   0  0  0  0  0  0  0  0  0  0  0  0
  -14.0215   13.5657  -26.8446 N   0  0  0  0  0  0  0  0  0  0  0  0
  1  2  1  0
  2  3  1  0
  3  4  1  1
  3  5  1  0
  5  6  1  0
  6  7  1  0
  7  8  2  0
  8  9  1  0
  9 10  2  0
 10 11  1  0
 11 12  1  0
 12 13  2  0
 13 14  1  0
 14 15  2  0
 15 16  1  0
 16 17  1  0
 16 18  2  0
 10 19  1  0
 19 20  2  0
 20 21  1  0
 21 22  2  0
 22 23  1  0
 23 24  2  0
 24  7  1  0
 22  9  1  0
 18 12  1  0
M  END
$$$$
CHEMBL166093_diffdock_5
     RDKit          3D

 24 26  0  0  0  0  0  0  0  0999 V2000
  -14.2273   18.8571  -22.7553 O   0  0  0  0  0  0  0  0  0  0  0  0
  -14.4362   18.6348  -24.1021 C   0  0  0  0  0  0  0  0  0  0  0  0
  -14.5921   17.1857  -24.4487 C   0  0  2  0  0  0  0  0  0  0  0  0
  -13.3669   16.5461  -24.2520 O   0  0  0  0  0  0  0  0  0  0  0  0
  -15.0186   17.0048  -25.8979 C   0  0  0  0  0  0  0  0  0  0  0  0
  -15.1925   15.6175  -26.2253 N   0  0  0  0  0  0  0  0  0  0  0  0
  -14.2743   14.9308  -27.0383 C   0  0  0  0  0  0  0  0  0  0  0  0
  -13.3359   15.7101  -27.7013 C   0  0  0  0  0  0  0  0  0  0  0  0
  -12.4401   15.0897  -28.5156 C   0  0  0  0  0  0  0  0  0  0  0  0
  -11.4958   15.8662  -29.1881 C   0  0  0  0  0  0  0  0  0  0  0  0
  -11.4256   17.2571  -28.9927 N   0  0  0  0  0  0  0  0  0  0  0  0
  -10.6233   18.1842  -29.6658 C   0  0  0  0  0  0  0  0  0  0  0  0
  -10.2344   19.3084  -28.9139 C   0  0  0  0  0  0  0  0  0  0  0  0
   -9.4945   20.3123  -29.4746 C   0  0  0  0  0  0  0  0  0  0  0  0
   -9.1155   20.2362  -30.8019 C   0  0  0  0  0  0  0  0  0  0  0  0
   -9.4836   19.1546  -31.5376 C   0  0  0  0  0  0  0  0  0  0  0  0
   -8.9540   19.0357  -33.3744 Br  0  0  0  0  0  0  0  0  0  0  0  0
  -10.2417   18.1167  -30.9798 C   0  0  0  0  0  0  0  0  0  0  0  0
  -10.6211   15.2297  -29.9960 N   0  0  0  0  0  0  0  0  0  0  0  0
  -10.6321   13.8952  -30.1671 C   0  0  0  0  0  0  0  0  0  0  0  0
  -11.5301   13.1371  -29.5256 N   0  0  0  0  0  0  0  0  0  0  0  0
  -12.4251   13.7245  -28.7073 C   0  0  0  0  0  0  0  0  0  0  0  0
  -13.3740   12.9885  -28.0275 C   0  0  0  0  0  0  0  0  0  0  0  0
  -14.2693   13.6043  -27.2146 N   0  0  0  0  0  0  0  0  0  0  0  0
  1  2  1  0
  2  3  1  0
  3  4  1  6
  3  5  1  0
  5  6  1  0
  6  7  1  0
  7  8  2  0
  8  9  1  0
  9 10  2  0
 10 11  1  0
 11 12  1  0
 12 13  2  0
 13 14  1  0
 14 15  2  0
 15 16  1  0
 16 17  1  0
 16 18  2  0
 10 19  1  0
 19 20  2  0
 20 21  1  0
 21 22  2  0
 22 23  1  0
 23 24  2  0
 24  7  1  0
 22  9  1  0
 18 12  1  0
M  END
$$$$
CHEMBL166093_diffdock_6
     RDKit          3D

 24 26  0  0  0  0  0  0  0  0999 V2000
  -14.3116   19.2538  -24.3502 O   0  0  0  0  0  0  0  0  0  0  0  0
  -15.2393   18.2722  -24.0627 C   0  0  0  0  0  0  0  0  0  0  0  0
  -14.9347   16.9571  -24.7123 C   0  0  2  0  0  0  0  0  0  0  0  0
  -13.5688   16.7006  -24.5802 O   0  0  0  0  0  0  0  0  0  0  0  0
  -15.2957   16.9717  -26.1903 C   0  0  0  0  0  0  0  0  0  0  0  0
  -15.5415   15.6460  -26.6843 N   0  0  0  0  0  0  0  0  0  0  0  0
  -14.5742   14.9431  -27.4232 C   0  0  0  0  0  0  0  0  0  0  0  0
  -13.5740   15.7057  -28.0107 C   0  0  0  0  0  0  0  0  0  0  0  0
  -12.6278   15.0694  -28.7526 C   0  0  0  0  0  0  0  0  0  0  0  0
  -11.6208   15.8292  -29.3490 C   0  0  0  0  0  0  0  0  0  0  0  0
  -11.5427   17.2189  -29.1485 N   0  0  0  0  0  0  0  0  0  0  0  0
  -10.6281   18.1211  -29.7016 C   0  0  0  0  0  0  0  0  0  0  0  0
  -10.2057   19.1567  -28.8474 C   0  0  0  0  0  0  0  0  0  0  0  0
   -9.3549   20.1326  -29.2870 C   0  0  0  0  0  0  0  0  0  0  0  0
   -8.8943   20.1158  -30.5903 C   0  0  0  0  0  0  0  0  0  0  0  0
   -9.2939   19.1198  -31.4240 C   0  0  0  0  0  0  0  0  0  0  0  0
   -8.6524   19.0825  -33.2283 Br  0  0  0  0  0  0  0  0  0  0  0  0
  -10.1652   18.1116  -30.9910 C   0  0  0  0  0  0  0  0  0  0  0  0
  -10.6965   15.1772  -30.0863 N   0  0  0  0  0  0  0  0  0  0  0  0
  -10.7166   13.8429  -30.2580 C   0  0  0  0  0  0  0  0  0  0  0  0
  -11.6747   13.1007  -29.6888 N   0  0  0  0  0  0  0  0  0  0  0  0
  -12.6209   13.7040  -28.9429 C   0  0  0  0  0  0  0  0  0  0  0  0
  -13.6323   12.9849  -28.3394 C   0  0  0  0  0  0  0  0  0  0  0  0
  -14.5779   13.6165  -27.5989 N   0  0  0  0  0  0  0  0  0  0  0  0
  1  2  1  0
  2  3  1  0
  3  4  1  6
  3  5  1  0
  5  6  1  0
  6  7  1  0
  7  8  2  0
  8  9  1  0
  9 10  2  0
 10 11  1  0
 11 12  1  0
 12 13  2  0
 13 14  1  0
 14 15  2  0
 15 16  1  0
 16 17  1  0
 16 18  2  0
 10 19  1  0
 19 20  2  0
 20 21  1  0
 21 22  2  0
 22 23  1  0
 23 24  2  0
 24  7  1  0
 22  9  1  0
 18 12  1  0
M  END
$$$$
CHEMBL166093_diffdock_7
     RDKit          3D

 24 26  0  0  0  0  0  0  0  0999 V2000
  -16.4664   19.3555  -25.7153 O   0  0  0  0  0  0  0  0  0  0  0  0
  -15.7670   18.8496  -26.7932 C   0  0  0  0  0  0  0  0  0  0  0  0
  -15.9525   17.3752  -26.9837 C   0  0  2  0  0  0  0  0  0  0  0  0
  -17.2458   17.0335  -26.5845 O   0  0  0  0  0  0  0  0  0  0  0  0
  -14.9524   16.5792  -26.1584 C   0  0  0  0  0  0  0  0  0  0  0  0
  -15.0826   15.1684  -26.3925 N   0  0  0  0  0  0  0  0  0  0  0  0
  -14.2160   14.4818  -27.2604 C   0  0  0  0  0  0  0  0  0  0  0  0
  -13.3639   15.2653  -28.0267 C   0  0  0  0  0  0  0  0  0  0  0  0
  -12.5219   14.6442  -28.8960 C   0  0  0  0  0  0  0  0  0  0  0  0
  -11.6644   15.4249  -29.6722 C   0  0  0  0  0  0  0  0  0  0  0  0
  -11.6226   16.8230  -29.5274 N   0  0  0  0  0  0  0  0  0  0  0  0
  -10.8106   17.7375  -30.2062 C   0  0  0  0  0  0  0  0  0  0  0  0
  -10.8671   17.6726  -31.6108 C   0  0  0  0  0  0  0  0  0  0  0  0
  -10.0803   18.4770  -32.3877 C   0  0  0  0  0  0  0  0  0  0  0  0
   -9.2088   19.3734  -31.7977 C   0  0  0  0  0  0  0  0  0  0  0  0
   -9.1467   19.4462  -30.4421 C   0  0  0  0  0  0  0  0  0  0  0  0
   -7.9499   20.6927  -29.6161 Br  0  0  0  0  0  0  0  0  0  0  0  0
   -9.9453   18.6299  -29.6304 C   0  0  0  0  0  0  0  0  0  0  0  0
  -10.8425   14.7873  -30.5329 N   0  0  0  0  0  0  0  0  0  0  0  0
  -10.8251   13.4479  -30.6605 C   0  0  0  0  0  0  0  0  0  0  0  0
  -11.6396   12.6860  -29.9197 N   0  0  0  0  0  0  0  0  0  0  0  0
  -12.4794   13.2743  -29.0454 C   0  0  0  0  0  0  0  0  0  0  0  0
  -13.3420   12.5343  -28.2628 C   0  0  0  0  0  0  0  0  0  0  0  0
  -14.1834   13.1508  -27.3948 N   0  0  0  0  0  0  0  0  0  0  0  0
  1  2  1  0
  2  3  1  0
  3  4  1  1
  3  5  1  0
  5  6  1  0
  6  7  1  0
  7  8  2  0
  8  9  1  0
  9 10  2  0
 10 11  1  0
 11 12  1  0
 12 13  2  0
 13 14  1  0
 14 15  2  0
 15 16  1  0
 16 17  1  0
 16 18  2  0
 10 19  1  0
 19 20  2  0
 20 21  1  0
 21 22  2  0
 22 23  1  0
 23 24  2  0
 24  7  1  0
 22  9  1  0
 18 12  1  0
M  END
$$$$
CHEMBL166093_diffdock_8
     RDKit          3D

 24 26  0  0  0  0  0  0  0  0999 V2000
  -17.3188   19.1238  -25.3826 O   0  0  0  0  0  0  0  0  0  0  0  0
  -16.0688   18.6101  -25.0989 C   0  0  0  0  0  0  0  0  0  0  0  0
  -15.9745   17.1287  -25.3009 C   0  0  2  0  0  0  0  0  0  0  0  0
  -16.8201   16.4994  -24.3856 O   0  0  0  0  0  0  0  0  0  0  0  0
  -14.5533   16.6291  -25.0873 C   0  0  0  0  0  0  0  0  0  0  0  0
  -14.4718   15.2020  -25.2241 N   0  0  0  0  0  0  0  0  0  0  0  0
  -13.7941   14.6016  -26.2993 C   0  0  0  0  0  0  0  0  0  0  0  0
  -13.0011   15.4390  -27.0720 C   0  0  0  0  0  0  0  0  0  0  0  0
  -12.3428   14.9049  -28.1359 C   0  0  0  0  0  0  0  0  0  0  0  0
  -11.5462   15.7406  -28.9196 C   0  0  0  0  0  0  0  0  0  0  0  0
  -11.3748   17.0977  -28.5934 N   0  0  0  0  0  0  0  0  0  0  0  0
  -10.6557   18.0705  -29.2955 C   0  0  0  0  0  0  0  0  0  0  0  0
  -10.1461   19.1269  -28.5179 C   0  0  0  0  0  0  0  0  0  0  0  0
   -9.4719   20.1674  -29.0944 C   0  0  0  0  0  0  0  0  0  0  0  0
   -9.2808   20.1966  -30.4633 C   0  0  0  0  0  0  0  0  0  0  0  0
   -9.7669   19.1812  -31.2243 C   0  0  0  0  0  0  0  0  0  0  0  0
   -9.4976   19.2079  -33.1204 Br  0  0  0  0  0  0  0  0  0  0  0  0
  -10.4601   18.1070  -30.6509 C   0  0  0  0  0  0  0  0  0  0  0  0
  -10.9077   15.1901  -29.9742 N   0  0  0  0  0  0  0  0  0  0  0  0
  -11.0135   13.8851  -30.2846 C   0  0  0  0  0  0  0  0  0  0  0  0
  -11.7714   13.0707  -29.5395 N   0  0  0  0  0  0  0  0  0  0  0  0
  -12.4294   13.5716  -28.4756 C   0  0  0  0  0  0  0  0  0  0  0  0
  -13.2270   12.7754  -27.6793 C   0  0  0  0  0  0  0  0  0  0  0  0
  -13.8854   13.3051  -26.6174 N   0  0  0  0  0  0  0  0  0  0  0  0
  1  2  1  0
  2  3  1  0
  3  4  1  1
  3  5  1  0
  5  6  1  0
  6  7  1  0
  7  8  2  0
  8  9  1  0
  9 10  2  0
 10 11  1  0
 11 12  1  0
 12 13  2  0
 13 14  1  0
 14 15  2  0
 15 16  1  0
 16 17  1  0
 16 18  2  0
 10 19  1  0
 19 20  2  0
 20 21  1  0
 21 22  2  0
 22 23  1  0
 23 24  2  0
 24  7  1  0
 22  9  1  0
 18 12  1  0
M  END
$$$$
CHEMBL166093_diffdock_9
     RDKit          3D

 24 26  0  0  0  0  0  0  0  0999 V2000
  -16.6185   19.6070  -27.0123 O   0  0  0  0  0  0  0  0  0  0  0  0
  -16.3488   18.8180  -25.9116 C   0  0  0  0  0  0  0  0  0  0  0  0
  -16.3210   17.3527  -26.2223 C   0  0  2  0  0  0  0  0  0  0  0  0
  -17.3921   16.7386  -25.5708 O   0  0  0  0  0  0  0  0  0  0  0  0
  -15.0229   16.7111  -25.7551 C   0  0  0  0  0  0  0  0  0  0  0  0
  -15.0387   15.2889  -25.9526 N   0  0  0  0  0  0  0  0  0  0  0  0
  -14.2518   14.6727  -26.9409 C   0  0  0  0  0  0  0  0  0  0  0  0
  -13.3843   15.4997  -27.6415 C   0  0  0  0  0  0  0  0  0  0  0  0
  -12.6179   14.9499  -28.6217 C   0  0  0  0  0  0  0  0  0  0  0  0
  -11.7457   15.7750  -29.3328 C   0  0  0  0  0  0  0  0  0  0  0  0
  -11.6117   17.1381  -29.0141 N   0  0  0  0  0  0  0  0  0  0  0  0
  -10.8305   18.1028  -29.6587 C   0  0  0  0  0  0  0  0  0  0  0  0
  -10.4376   19.1953  -28.8632 C   0  0  0  0  0  0  0  0  0  0  0  0
   -9.7174   20.2309  -29.3909 C   0  0  0  0  0  0  0  0  0  0  0  0
   -9.3627   20.2192  -30.7270 C   0  0  0  0  0  0  0  0  0  0  0  0
   -9.7350   19.1688  -31.5046 C   0  0  0  0  0  0  0  0  0  0  0  0
   -9.2389   19.1390  -33.3543 Br  0  0  0  0  0  0  0  0  0  0  0  0
  -10.4731   18.0991  -30.9811 C   0  0  0  0  0  0  0  0  0  0  0  0
  -10.9999   15.2089  -30.3055 N   0  0  0  0  0  0  0  0  0  0  0  0
  -11.0704   13.8985  -30.6025 C   0  0  0  0  0  0  0  0  0  0  0  0
  -11.9001   13.0941  -29.9262 N   0  0  0  0  0  0  0  0  0  0  0  0
  -12.6662   13.6107  -28.9454 C   0  0  0  0  0  0  0  0  0  0  0  0
  -13.5408   12.8253  -28.2226 C   0  0  0  0  0  0  0  0  0  0  0  0
  -14.3070   13.3706  -27.2442 N   0  0  0  0  0  0  0  0  0  0  0  0
  1  2  1  0
  2  3  1  0
  3  4  1  1
  3  5  1  0
  5  6  1  0
  6  7  1  0
  7  8  2  0
  8  9  1  0
  9 10  2  0
 10 11  1  0
 11 12  1  0
 12 13  2  0
 13 14  1  0
 14 15  2  0
 15 16  1  0
 16 17  1  0
 16 18  2  0
 10 19  1  0
 19 20  2  0
 20 21  1  0
 21 22  2  0
 22 23  1  0
 23 24  2  0
 24  7  1  0
 22  9  1  0
 18 12  1  0
M  END
$$$$
CHEMBL166093_diffdock_10
     RDKit          3D

 24 26  0  0  0  0  0  0  0  0999 V2000
   -1.0828  123.9165   19.2650 O   0  0  0  0  0  0  0  0  0  0  0  0
    0.0350  124.1055   18.4766 C   0  0  0  0  0  0  0  0  0  0  0  0
   -0.1061  125.2382   17.5062 C   0  0  2  0  0  0  0  0  0  0  0  0
   -0.8113  126.2711   18.1264 O   0  0  0  0  0  0  0  0  0  0  0  0
   -0.8569  124.8067   16.2553 C   0  0  0  0  0  0  0  0  0  0  0  0
   -0.8681  125.8459   15.2644 N   0  0  0  0  0  0  0  0  0  0  0  0
    0.2802  126.1681   14.5205 C   0  0  0  0  0  0  0  0  0  0  0  0
    1.3545  125.2967   14.6380 C   0  0  0  0  0  0  0  0  0  0  0  0
    2.4944  125.5802   13.9518 C   0  0  0  0  0  0  0  0  0  0  0  0
    3.5799  124.7110   14.0671 C   0  0  0  0  0  0  0  0  0  0  0  0
    3.4906  123.5329   14.8299 N   0  0  0  0  0  0  0  0  0  0  0  0
    4.4945  122.5943   15.0897 C   0  0  0  0  0  0  0  0  0  0  0  0
    4.3477  121.8643   16.2839 C   0  0  0  0  0  0  0  0  0  0  0  0
    5.2907  120.9555   16.6771 C   0  0  0  0  0  0  0  0  0  0  0  0
    6.4131  120.7401   15.8993 C   0  0  0  0  0  0  0  0  0  0  0  0
    6.5648  121.4378   14.7431 C   0  0  0  0  0  0  0  0  0  0  0  0
    8.1115  121.1381   13.6539 Br  0  0  0  0  0  0  0  0  0  0  0  0
    5.6091  122.3729   14.3246 C   0  0  0  0  0  0  0  0  0  0  0  0
    4.7030  125.0159   13.3825 N   0  0  0  0  0  0  0  0  0  0  0  0
    4.8036  126.1105   12.6066 C   0  0  0  0  0  0  0  0  0  0  0  0
    3.7690  126.9515   12.4836 N   0  0  0  0  0  0  0  0  0  0  0  0
    2.6252  126.6917   13.1468 C   0  0  0  0  0  0  0  0  0  0  0  0
    1.5322  127.5295   13.0575 C   0  0  0  0  0  0  0  0  0  0  0  0
    0.3937  127.2498   13.7410 N   0  0  0  0  0  0  0  0  0  0  0  0
  1  2  1  0
  2  3  1  0
  3  4  1  1
  3  5  1  0
  5  6  1  0
  6  7  1  0
  7  8  2  0
  8  9  1  0
  9 10  2  0
 10 11  1  0
 11 12  1  0
 12 13  2  0
 13 14  1  0
 14 15  2  0
 15 16  1  0
 16 17  1  0
 16 18  2  0
 10 19  1  0
 19 20  2  0
 20 21  1  0
 21 22  2  0
 22 23  1  0
 23 24  2  0
 24  7  1  0
 22  9  1  0
 18 12  1  0
M  END
$$$$
CHEMBL2437460_diffdock_1
     RDKit          3D

 35 39  0  0  0  0  0  0  0  0999 V2000
  -14.4143   18.5992  -20.7498 C   0  0  0  0  0  0  0  0  0  0  0  0
  -14.0641   19.2533  -21.8375 C   0  0  0  0  0  0  0  0  0  0  0  0
  -14.3616   18.7135  -23.1366 C   0  0  0  0  0  0  0  0  0  0  0  0
  -15.4844   18.9654  -23.6697 O   0  0  0  0  0  0  0  0  0  0  0  0
  -13.4851   17.8983  -23.9011 N   0  0  0  0  0  0  0  0  0  0  0  0
  -13.7651   17.5721  -25.2653 C   0  0  0  0  0  0  0  0  0  0  0  0
  -15.0449   17.5387  -25.7771 C   0  0  0  0  0  0  0  0  0  0  0  0
  -15.3078   17.2200  -27.1064 C   0  0  0  0  0  0  0  0  0  0  0  0
  -14.2389   16.9280  -27.9349 C   0  0  0  0  0  0  0  0  0  0  0  0
  -12.9423   16.9498  -27.4637 C   0  0  0  0  0  0  0  0  0  0  0  0
  -11.8890   16.6420  -28.3588 N   0  0  0  0  0  0  0  0  0  0  0  0
  -11.0475   17.5836  -28.8404 C   0  0  0  0  0  0  0  0  0  0  0  0
  -11.2411   18.7680  -28.4545 O   0  0  0  0  0  0  0  0  0  0  0  0
  -10.0275   17.2668  -29.7106 C   0  0  0  0  0  0  0  0  0  0  0  0
   -9.8432   15.9992  -30.1053 N   0  0  0  0  0  0  0  0  0  0  0  0
  -10.6567   15.0513  -29.6471 C   0  0  0  0  0  0  0  0  0  0  0  0
  -10.5179   13.7305  -30.0164 C   0  0  0  0  0  0  0  0  0  0  0  0
  -11.3953   12.8690  -29.4906 N   0  0  0  0  0  0  0  0  0  0  0  0
  -12.3861   13.1416  -28.6523 C   0  0  0  0  0  0  0  0  0  0  0  0
  -13.2684   12.1634  -28.1454 N   0  0  0  0  0  0  0  0  0  0  0  0
  -14.4376   12.3380  -27.3946 C   0  0  0  0  0  0  0  0  0  0  0  0
  -15.3189   11.2734  -27.1664 C   0  0  0  0  0  0  0  0  0  0  0  0
  -16.4717   11.4161  -26.4365 C   0  0  0  0  0  0  0  0  0  0  0  0
  -16.8208   12.6300  -25.8864 C   0  0  0  0  0  0  0  0  0  0  0  0
  -18.0257   12.7372  -25.1302 N   0  0  0  0  0  0  0  0  0  0  0  0
  -18.3126   13.9319  -24.3473 C   0  0  0  0  0  0  0  0  0  0  0  0
  -19.8315   13.9350  -24.1302 C   0  0  0  0  0  0  0  0  0  0  0  0
  -20.2434   12.8642  -23.3751 O   0  0  0  0  0  0  0  0  0  0  0  0
  -19.6035   11.6869  -23.6744 C   0  0  0  0  0  0  0  0  0  0  0  0
  -19.0208   11.6860  -25.0883 C   0  0  0  0  0  0  0  0  0  0  0  0
  -15.9828   13.6951  -26.0886 C   0  0  0  0  0  0  0  0  0  0  0  0
  -14.8070   13.5321  -26.8381 C   0  0  0  0  0  0  0  0  0  0  0  0
  -12.5383   14.4536  -28.2741 N   0  0  0  0  0  0  0  0  0  0  0  0
  -11.6942   15.3683  -28.7631 C   0  0  0  0  0  0  0  0  0  0  0  0
  -12.7308   17.2700  -26.1441 C   0  0  0  0  0  0  0  0  0  0  0  0
  1  2  2  0
  2  3  1  0
  3  4  2  0
  3  5  1  0
  5  6  1  0
  6  7  2  0
  7  8  1  0
  8  9  2  0
  9 10  1  0
 10 11  1  0
 11 12  1  0
 12 13  2  0
 12 14  1  0
 14 15  2  0
 15 16  1  0
 16 17  2  0
 17 18  1  0
 18 19  2  0
 19 20  1  0
 20 21  1  0
 21 22  2  0
 22 23  1  0
 23 24  2  0
 24 25  1  0
 25 26  1  0
 26 27  1  0
 27 28  1  0
 28 29  1  0
 29 30  1  0
 24 31  1  0
 31 32  2  0
 19 33  1  0
 33 34  2  0
 10 35  2  0
 35  6  1  0
 34 11  1  0
 34 16  1  0
 32 21  1  0
 30 25  1  0
M  END
$$$$
CHEMBL2437460_diffdock_2
     RDKit          3D

 35 39  0  0  0  0  0  0  0  0999 V2000
  -14.0757   18.8071  -20.5641 C   0  0  0  0  0  0  0  0  0  0  0  0
  -14.6493   17.7820  -21.1588 C   0  0  0  0  0  0  0  0  0  0  0  0
  -14.8372   17.7818  -22.5843 C   0  0  0  0  0  0  0  0  0  0  0  0
  -16.0022   17.6119  -23.0555 O   0  0  0  0  0  0  0  0  0  0  0  0
  -13.8044   17.9603  -23.5429 N   0  0  0  0  0  0  0  0  0  0  0  0
  -13.9467   17.5028  -24.8907 C   0  0  0  0  0  0  0  0  0  0  0  0
  -15.1726   17.2404  -25.4643 C   0  0  0  0  0  0  0  0  0  0  0  0
  -15.3012   16.7953  -26.7770 C   0  0  0  0  0  0  0  0  0  0  0  0
  -14.1509   16.6131  -27.5237 C   0  0  0  0  0  0  0  0  0  0  0  0
  -12.9040   16.8638  -26.9888 C   0  0  0  0  0  0  0  0  0  0  0  0
  -11.7624   16.6591  -27.8013 N   0  0  0  0  0  0  0  0  0  0  0  0
  -10.9139   17.6597  -28.1261 C   0  0  0  0  0  0  0  0  0  0  0  0
  -11.1840   18.8031  -27.6688 O   0  0  0  0  0  0  0  0  0  0  0  0
   -9.8075   17.4431  -28.9178 C   0  0  0  0  0  0  0  0  0  0  0  0
   -9.5430   16.2173  -29.3913 N   0  0  0  0  0  0  0  0  0  0  0  0
  -10.3614   15.2131  -29.0876 C   0  0  0  0  0  0  0  0  0  0  0  0
  -10.1426   13.9310  -29.5443 C   0  0  0  0  0  0  0  0  0  0  0  0
  -11.0337   13.0055  -29.1729 N   0  0  0  0  0  0  0  0  0  0  0  0
  -12.1066   13.1816  -28.4135 C   0  0  0  0  0  0  0  0  0  0  0  0
  -12.9967   12.1413  -28.0705 N   0  0  0  0  0  0  0  0  0  0  0  0
  -14.0947   12.1739  -27.2017 C   0  0  0  0  0  0  0  0  0  0  0  0
  -14.7105   10.9936  -26.7662 C   0  0  0  0  0  0  0  0  0  0  0  0
  -15.7879   10.9959  -25.9170 C   0  0  0  0  0  0  0  0  0  0  0  0
  -16.3217   12.1757  -25.4467 C   0  0  0  0  0  0  0  0  0  0  0  0
  -17.4399   12.1365  -24.5618 N   0  0  0  0  0  0  0  0  0  0  0  0
  -17.6508   13.1894  -23.5772 C   0  0  0  0  0  0  0  0  0  0  0  0
  -19.1379   13.1226  -23.2053 C   0  0  0  0  0  0  0  0  0  0  0  0
  -19.4589   11.9390  -22.5870 O   0  0  0  0  0  0  0  0  0  0  0  0
  -18.8456   10.8373  -23.1306 C   0  0  0  0  0  0  0  0  0  0  0  0
  -18.4168   11.0677  -24.5803 C   0  0  0  0  0  0  0  0  0  0  0  0
  -15.7454   13.3512  -25.8512 C   0  0  0  0  0  0  0  0  0  0  0  0
  -14.6433   13.3313  -26.7206 C   0  0  0  0  0  0  0  0  0  0  0  0
  -12.3392   14.4538  -27.9500 N   0  0  0  0  0  0  0  0  0  0  0  0
  -11.4864   15.4283  -28.2838 C   0  0  0  0  0  0  0  0  0  0  0  0
  -12.8257   17.3019  -25.6885 C   0  0  0  0  0  0  0  0  0  0  0  0
  1  2  2  0
  2  3  1  0
  3  4  2  0
  3  5  1  0
  5  6  1  0
  6  7  2  0
  7  8  1  0
  8  9  2  0
  9 10  1  0
 10 11  1  0
 11 12  1  0
 12 13  2  0
 12 14  1  0
 14 15  2  0
 15 16  1  0
 16 17  2  0
 17 18  1  0
 18 19  2  0
 19 20  1  0
 20 21  1  0
 21 22  2  0
 22 23  1  0
 23 24  2  0
 24 25  1  0
 25 26  1  0
 26 27  1  0
 27 28  1  0
 28 29  1  0
 29 30  1  0
 24 31  1  0
 31 32  2  0
 19 33  1  0
 33 34  2  0
 10 35  2  0
 35  6  1  0
 34 11  1  0
 34 16  1  0
 32 21  1  0
 30 25  1  0
M  END
$$$$
CHEMBL2437460_diffdock_3
     RDKit          3D

 35 39  0  0  0  0  0  0  0  0999 V2000
  -14.8535   20.0862  -21.5901 C   0  0  0  0  0  0  0  0  0  0  0  0
  -15.1047   18.8699  -22.0270 C   0  0  0  0  0  0  0  0  0  0  0  0
  -15.1059   18.5912  -23.4377 C   0  0  0  0  0  0  0  0  0  0  0  0
  -15.7556   19.3503  -24.2185 O   0  0  0  0  0  0  0  0  0  0  0  0
  -14.4242   17.5091  -24.0556 N   0  0  0  0  0  0  0  0  0  0  0  0
  -14.4687   17.3065  -25.4708 C   0  0  0  0  0  0  0  0  0  0  0  0
  -15.6452   17.3163  -26.1895 C   0  0  0  0  0  0  0  0  0  0  0  0
  -15.6787   17.1181  -27.5670 C   0  0  0  0  0  0  0  0  0  0  0  0
  -14.4825   16.9044  -28.2284 C   0  0  0  0  0  0  0  0  0  0  0  0
  -13.2824   16.8866  -27.5478 C   0  0  0  0  0  0  0  0  0  0  0  0
  -12.0902   16.6631  -28.2786 N   0  0  0  0  0  0  0  0  0  0  0  0
  -11.1877   17.6417  -28.5118 C   0  0  0  0  0  0  0  0  0  0  0  0
  -11.4542   18.7820  -28.0447 O   0  0  0  0  0  0  0  0  0  0  0  0
  -10.0324   17.4070  -29.2247 C   0  0  0  0  0  0  0  0  0  0  0  0
   -9.7729   16.1850  -29.7106 N   0  0  0  0  0  0  0  0  0  0  0  0
  -10.6439   15.2023  -29.4962 C   0  0  0  0  0  0  0  0  0  0  0  0
  -10.4330   13.9252  -29.9703 C   0  0  0  0  0  0  0  0  0  0  0  0
  -11.3791   13.0219  -29.6917 N   0  0  0  0  0  0  0  0  0  0  0  0
  -12.4997   13.2158  -29.0096 C   0  0  0  0  0  0  0  0  0  0  0  0
  -13.4464   12.1985  -28.7623 N   0  0  0  0  0  0  0  0  0  0  0  0
  -14.4638   12.1586  -27.8007 C   0  0  0  0  0  0  0  0  0  0  0  0
  -15.0687   13.3333  -27.3356 C   0  0  0  0  0  0  0  0  0  0  0  0
  -16.0659   13.3241  -26.3935 C   0  0  0  0  0  0  0  0  0  0  0  0
  -16.5250   12.1426  -25.8538 C   0  0  0  0  0  0  0  0  0  0  0  0
  -17.5665   12.1742  -24.8794 N   0  0  0  0  0  0  0  0  0  0  0  0
  -18.5939   11.1417  -24.8502 C   0  0  0  0  0  0  0  0  0  0  0  0
  -19.1829   11.1775  -23.4340 C   0  0  0  0  0  0  0  0  0  0  0  0
  -19.8168   12.3675  -23.1724 O   0  0  0  0  0  0  0  0  0  0  0  0
  -19.1640   13.4710  -23.6635 C   0  0  0  0  0  0  0  0  0  0  0  0
  -17.6716   13.2151  -23.8782 C   0  0  0  0  0  0  0  0  0  0  0  0
  -15.9569   10.9725  -26.2847 C   0  0  0  0  0  0  0  0  0  0  0  0
  -14.9373   10.9995  -27.2494 C   0  0  0  0  0  0  0  0  0  0  0  0
  -12.7253   14.4833  -28.5300 N   0  0  0  0  0  0  0  0  0  0  0  0
  -11.8187   15.4359  -28.7727 C   0  0  0  0  0  0  0  0  0  0  0  0
  -13.2980   17.0871  -26.1883 C   0  0  0  0  0  0  0  0  0  0  0  0
  1  2  2  0
  2  3  1  0
  3  4  2  0
  3  5  1  0
  5  6  1  0
  6  7  2  0
  7  8  1  0
  8  9  2  0
  9 10  1  0
 10 11  1  0
 11 12  1  0
 12 13  2  0
 12 14  1  0
 14 15  2  0
 15 16  1  0
 16 17  2  0
 17 18  1  0
 18 19  2  0
 19 20  1  0
 20 21  1  0
 21 22  2  0
 22 23  1  0
 23 24  2  0
 24 25  1  0
 25 26  1  0
 26 27  1  0
 27 28  1  0
 28 29  1  0
 29 30  1  0
 24 31  1  0
 31 32  2  0
 19 33  1  0
 33 34  2  0
 10 35  2  0
 35  6  1  0
 34 11  1  0
 34 16  1  0
 32 21  1  0
 30 25  1  0
M  END
$$$$
CHEMBL2437460_diffdock_4
     RDKit          3D

 35 39  0  0  0  0  0  0  0  0999 V2000
  -16.2903   22.6218  -27.0756 C   0  0  0  0  0  0  0  0  0  0  0  0
  -16.5787   21.7203  -26.1604 C   0  0  0  0  0  0  0  0  0  0  0  0
  -16.1012   20.3707  -26.2951 C   0  0  0  0  0  0  0  0  0  0  0  0
  -16.6865   19.4405  -25.6622 O   0  0  0  0  0  0  0  0  0  0  0  0
  -14.9992   19.9719  -27.0976 N   0  0  0  0  0  0  0  0  0  0  0  0
  -14.3761   18.6951  -26.9326 C   0  0  0  0  0  0  0  0  0  0  0  0
  -14.7222   17.8204  -25.9247 C   0  0  0  0  0  0  0  0  0  0  0  0
  -14.1100   16.5796  -25.7718 C   0  0  0  0  0  0  0  0  0  0  0  0
  -13.1199   16.2215  -26.6693 C   0  0  0  0  0  0  0  0  0  0  0  0
  -12.7427   17.0666  -27.6927 C   0  0  0  0  0  0  0  0  0  0  0  0
  -11.7231   16.6456  -28.5806 N   0  0  0  0  0  0  0  0  0  0  0  0
  -10.7081   17.4552  -28.9562 C   0  0  0  0  0  0  0  0  0  0  0  0
  -10.7053   18.6209  -28.4763 O   0  0  0  0  0  0  0  0  0  0  0  0
   -9.7239   17.0294  -29.8210 C   0  0  0  0  0  0  0  0  0  0  0  0
   -9.7503   15.7844  -30.3171 N   0  0  0  0  0  0  0  0  0  0  0  0
  -10.7379   14.9655  -29.9645 C   0  0  0  0  0  0  0  0  0  0  0  0
  -10.8195   13.6746  -30.4410 C   0  0  0  0  0  0  0  0  0  0  0  0
  -11.8575   12.9465  -30.0155 N   0  0  0  0  0  0  0  0  0  0  0  0
  -12.8195   13.3262  -29.1854 C   0  0  0  0  0  0  0  0  0  0  0  0
  -13.8821   12.4861  -28.7889 N   0  0  0  0  0  0  0  0  0  0  0  0
  -14.6658   12.5468  -27.6298 C   0  0  0  0  0  0  0  0  0  0  0  0
  -15.0301   13.7753  -27.0639 C   0  0  0  0  0  0  0  0  0  0  0  0
  -15.7953   13.8644  -25.9288 C   0  0  0  0  0  0  0  0  0  0  0  0
  -16.2472   12.7341  -25.2838 C   0  0  0  0  0  0  0  0  0  0  0  0
  -17.0441   12.8682  -24.1082 N   0  0  0  0  0  0  0  0  0  0  0  0
  -17.5000   11.6937  -23.3767 C   0  0  0  0  0  0  0  0  0  0  0  0
  -17.8332   12.1853  -21.9619 C   0  0  0  0  0  0  0  0  0  0  0  0
  -18.8784   13.0762  -21.9619 O   0  0  0  0  0  0  0  0  0  0  0  0
  -18.8530   13.9715  -23.0025 C   0  0  0  0  0  0  0  0  0  0  0  0
  -17.4477   14.1537  -23.5775 C   0  0  0  0  0  0  0  0  0  0  0  0
  -15.9107   11.5137  -25.8084 C   0  0  0  0  0  0  0  0  0  0  0  0
  -15.1269   11.4400  -26.9707 C   0  0  0  0  0  0  0  0  0  0  0  0
  -12.7530   14.6102  -28.7012 N   0  0  0  0  0  0  0  0  0  0  0  0
  -11.7399   15.3935  -29.0863 C   0  0  0  0  0  0  0  0  0  0  0  0
  -13.3749   18.2817  -27.8045 C   0  0  0  0  0  0  0  0  0  0  0  0
  1  2  2  0
  2  3  1  0
  3  4  2  0
  3  5  1  0
  5  6  1  0
  6  7  2  0
  7  8  1  0
  8  9  2  0
  9 10  1  0
 10 11  1  0
 11 12  1  0
 12 13  2  0
 12 14  1  0
 14 15  2  0
 15 16  1  0
 16 17  2  0
 17 18  1  0
 18 19  2  0
 19 20  1  0
 20 21  1  0
 21 22  2  0
 22 23  1  0
 23 24  2  0
 24 25  1  0
 25 26  1  0
 26 27  1  0
 27 28  1  0
 28 29  1  0
 29 30  1  0
 24 31  1  0
 31 32  2  0
 19 33  1  0
 33 34  2  0
 10 35  2  0
 35  6  1  0
 34 11  1  0
 34 16  1  0
 32 21  1  0
 30 25  1  0
M  END
$$$$
CHEMBL2437460_diffdock_5
     RDKit          3D

 35 39  0  0  0  0  0  0  0  0999 V2000
  -17.9237   21.6432  -26.7470 C   0  0  0  0  0  0  0  0  0  0  0  0
  -16.8961   21.2969  -26.0003 C   0  0  0  0  0  0  0  0  0  0  0  0
  -16.2255   20.0448  -26.2240 C   0  0  0  0  0  0  0  0  0  0  0  0
  -16.9151   18.9928  -26.3846 O   0  0  0  0  0  0  0  0  0  0  0  0
  -14.8167   19.8736  -26.2832 N   0  0  0  0  0  0  0  0  0  0  0  0
  -14.2187   18.5746  -26.2567 C   0  0  0  0  0  0  0  0  0  0  0  0
  -14.6014   17.5949  -25.3654 C   0  0  0  0  0  0  0  0  0  0  0  0
  -14.0134   16.3332  -25.3469 C   0  0  0  0  0  0  0  0  0  0  0  0
  -13.0098   16.0637  -26.2603 C   0  0  0  0  0  0  0  0  0  0  0  0
  -12.5962   17.0152  -27.1697 C   0  0  0  0  0  0  0  0  0  0  0  0
  -11.5644   16.6815  -28.0804 N   0  0  0  0  0  0  0  0  0  0  0  0
  -10.5940   17.5551  -28.4295 C   0  0  0  0  0  0  0  0  0  0  0  0
  -10.6451   18.6995  -27.9030 O   0  0  0  0  0  0  0  0  0  0  0  0
   -9.5971   17.2139  -29.3171 C   0  0  0  0  0  0  0  0  0  0  0  0
   -9.5659   15.9901  -29.8628 N   0  0  0  0  0  0  0  0  0  0  0  0
  -10.5086   15.1094  -29.5372 C   0  0  0  0  0  0  0  0  0  0  0  0
  -10.5301   13.8361  -30.0649 C   0  0  0  0  0  0  0  0  0  0  0  0
  -11.5270   13.0406  -29.6626 N   0  0  0  0  0  0  0  0  0  0  0  0
  -12.4997   13.3384  -28.8116 C   0  0  0  0  0  0  0  0  0  0  0  0
  -13.5159   12.4310  -28.4426 N   0  0  0  0  0  0  0  0  0  0  0  0
  -14.5716   12.6122  -27.5404 C   0  0  0  0  0  0  0  0  0  0  0  0
  -15.4583   11.5696  -27.2424 C   0  0  0  0  0  0  0  0  0  0  0  0
  -16.5016   11.7193  -26.3643 C   0  0  0  0  0  0  0  0  0  0  0  0
  -16.7287   12.9188  -25.7258 C   0  0  0  0  0  0  0  0  0  0  0  0
  -17.8217   13.0338  -24.8163 N   0  0  0  0  0  0  0  0  0  0  0  0
  -18.8465   12.0007  -24.7455 C   0  0  0  0  0  0  0  0  0  0  0  0
  -19.5118   12.1648  -23.3727 C   0  0  0  0  0  0  0  0  0  0  0  0
  -20.1620   13.3693  -23.2590 O   0  0  0  0  0  0  0  0  0  0  0  0
  -19.4862   14.4268  -23.8159 C   0  0  0  0  0  0  0  0  0  0  0  0
  -17.9837   14.1632  -23.9247 C   0  0  0  0  0  0  0  0  0  0  0  0
  -15.8814   13.9623  -25.9923 C   0  0  0  0  0  0  0  0  0  0  0  0
  -14.8186   13.7924  -26.8937 C   0  0  0  0  0  0  0  0  0  0  0  0
  -12.4929   14.6036  -28.2764 N   0  0  0  0  0  0  0  0  0  0  0  0
  -11.5232   15.4513  -28.6361 C   0  0  0  0  0  0  0  0  0  0  0  0
  -13.2055   18.2469  -27.1509 C   0  0  0  0  0  0  0  0  0  0  0  0
  1  2  2  0
  2  3  1  0
  3  4  2  0
  3  5  1  0
  5  6  1  0
  6  7  2  0
  7  8  1  0
  8  9  2  0
  9 10  1  0
 10 11  1  0
 11 12  1  0
 12 13  2  0
 12 14  1  0
 14 15  2  0
 15 16  1  0
 16 17  2  0
 17 18  1  0
 18 19  2  0
 19 20  1  0
 20 21  1  0
 21 22  2  0
 22 23  1  0
 23 24  2  0
 24 25  1  0
 25 26  1  0
 26 27  1  0
 27 28  1  0
 28 29  1  0
 29 30  1  0
 24 31  1  0
 31 32  2  0
 19 33  1  0
 33 34  2  0
 10 35  2  0
 35  6  1  0
 34 11  1  0
 34 16  1  0
 32 21  1  0
 30 25  1  0
M  END
$$$$
CHEMBL2437460_diffdock_6
     RDKit          3D

 35 39  0  0  0  0  0  0  0  0999 V2000
  -17.7310   21.5760  -26.3030 C   0  0  0  0  0  0  0  0  0  0  0  0
  -16.8617   21.2860  -25.3577 C   0  0  0  0  0  0  0  0  0  0  0  0
  -16.1541   20.0345  -25.3812 C   0  0  0  0  0  0  0  0  0  0  0  0
  -16.1660   19.2967  -24.3499 O   0  0  0  0  0  0  0  0  0  0  0  0
  -15.4200   19.5336  -26.4892 N   0  0  0  0  0  0  0  0  0  0  0  0
  -14.4014   18.5428  -26.3261 C   0  0  0  0  0  0  0  0  0  0  0  0
  -14.2980   17.7574  -25.1978 C   0  0  0  0  0  0  0  0  0  0  0  0
  -13.3030   16.7955  -25.0479 C   0  0  0  0  0  0  0  0  0  0  0  0
  -12.3902   16.6302  -26.0744 C   0  0  0  0  0  0  0  0  0  0  0  0
  -12.4572   17.3950  -27.2208 C   0  0  0  0  0  0  0  0  0  0  0  0
  -11.4952   17.1808  -28.2376 N   0  0  0  0  0  0  0  0  0  0  0  0
  -10.7676   18.1867  -28.7718 C   0  0  0  0  0  0  0  0  0  0  0  0
  -10.9834   19.3441  -28.3209 O   0  0  0  0  0  0  0  0  0  0  0  0
   -9.8353   17.9607  -29.7605 C   0  0  0  0  0  0  0  0  0  0  0  0
   -9.6251   16.7200  -30.2224 N   0  0  0  0  0  0  0  0  0  0  0  0
  -10.3272   15.7103  -29.7148 C   0  0  0  0  0  0  0  0  0  0  0  0
  -10.1563   14.4130  -30.1484 C   0  0  0  0  0  0  0  0  0  0  0  0
  -10.9191   13.4833  -29.5634 N   0  0  0  0  0  0  0  0  0  0  0  0
  -11.8235   13.6681  -28.6111 C   0  0  0  0  0  0  0  0  0  0  0  0
  -12.5867   12.6223  -28.0489 N   0  0  0  0  0  0  0  0  0  0  0  0
  -13.6886   12.7022  -27.1882 C   0  0  0  0  0  0  0  0  0  0  0  0
  -13.9496   13.8634  -26.4497 C   0  0  0  0  0  0  0  0  0  0  0  0
  -15.0201   13.9689  -25.5984 C   0  0  0  0  0  0  0  0  0  0  0  0
  -15.9004   12.9229  -25.4279 C   0  0  0  0  0  0  0  0  0  0  0  0
  -17.0041   13.0727  -24.5366 N   0  0  0  0  0  0  0  0  0  0  0  0
  -17.5693   11.9204  -23.8471 C   0  0  0  0  0  0  0  0  0  0  0  0
  -18.3205   12.4856  -22.6345 C   0  0  0  0  0  0  0  0  0  0  0  0
  -19.3798   13.2750  -23.0102 O   0  0  0  0  0  0  0  0  0  0  0  0
  -19.1207   14.0872  -24.0863 C   0  0  0  0  0  0  0  0  0  0  0  0
  -17.6254   14.3526  -24.2668 C   0  0  0  0  0  0  0  0  0  0  0  0
  -15.6772   11.7700  -26.1341 C   0  0  0  0  0  0  0  0  0  0  0  0
  -14.5769   11.6785  -27.0012 C   0  0  0  0  0  0  0  0  0  0  0  0
  -12.0062   14.9555  -28.1676 N   0  0  0  0  0  0  0  0  0  0  0  0
  -11.2753   15.9350  -28.7103 C   0  0  0  0  0  0  0  0  0  0  0  0
  -13.4568   18.3325  -27.3246 C   0  0  0  0  0  0  0  0  0  0  0  0
  1  2  2  0
  2  3  1  0
  3  4  2  0
  3  5  1  0
  5  6  1  0
  6  7  2  0
  7  8  1  0
  8  9  2  0
  9 10  1  0
 10 11  1  0
 11 12  1  0
 12 13  2  0
 12 14  1  0
 14 15  2  0
 15 16  1  0
 16 17  2  0
 17 18  1  0
 18 19  2  0
 19 20  1  0
 20 21  1  0
 21 22  2  0
 22 23  1  0
 23 24  2  0
 24 25  1  0
 25 26  1  0
 26 27  1  0
 27 28  1  0
 28 29  1  0
 29 30  1  0
 24 31  1  0
 31 32  2  0
 19 33  1  0
 33 34  2  0
 10 35  2  0
 35  6  1  0
 34 11  1  0
 34 16  1  0
 32 21  1  0
 30 25  1  0
M  END
$$$$
CHEMBL2437460_diffdock_7
     RDKit          3D

 35 39  0  0  0  0  0  0  0  0999 V2000
  -18.5775   21.1834  -25.8237 C   0  0  0  0  0  0  0  0  0  0  0  0
  -17.3213   20.9618  -25.4977 C   0  0  0  0  0  0  0  0  0  0  0  0
  -16.7659   19.6398  -25.6051 C   0  0  0  0  0  0  0  0  0  0  0  0
  -17.1164   18.7510  -24.7713 O   0  0  0  0  0  0  0  0  0  0  0  0
  -15.8310   19.2259  -26.5910 N   0  0  0  0  0  0  0  0  0  0  0  0
  -14.7971   18.2833  -26.2934 C   0  0  0  0  0  0  0  0  0  0  0  0
  -14.7140   17.6231  -25.0860 C   0  0  0  0  0  0  0  0  0  0  0  0
  -13.7039   16.7073  -24.8053 C   0  0  0  0  0  0  0  0  0  0  0  0
  -12.7546   16.4583  -25.7803 C   0  0  0  0  0  0  0  0  0  0  0  0
  -12.8003   17.0969  -27.0025 C   0  0  0  0  0  0  0  0  0  0  0  0
  -11.8009   16.8015  -27.9613 N   0  0  0  0  0  0  0  0  0  0  0  0
  -10.8166   17.6727  -28.2756 C   0  0  0  0  0  0  0  0  0  0  0  0
  -10.8237   18.7787  -27.6706 O   0  0  0  0  0  0  0  0  0  0  0  0
   -9.8517   17.3690  -29.2109 C   0  0  0  0  0  0  0  0  0  0  0  0
   -9.8670   16.1855  -29.8400 N   0  0  0  0  0  0  0  0  0  0  0  0
  -10.8245   15.3082  -29.5504 C   0  0  0  0  0  0  0  0  0  0  0  0
  -10.8932   14.0755  -30.1635 C   0  0  0  0  0  0  0  0  0  0  0  0
  -11.9007   13.2792  -29.7901 N   0  0  0  0  0  0  0  0  0  0  0  0
  -12.8434   13.5415  -28.8949 C   0  0  0  0  0  0  0  0  0  0  0  0
  -13.8740   12.6364  -28.5618 N   0  0  0  0  0  0  0  0  0  0  0  0
  -14.8330   12.7308  -27.5456 C   0  0  0  0  0  0  0  0  0  0  0  0
  -15.5887   11.6177  -27.1556 C   0  0  0  0  0  0  0  0  0  0  0  0
  -16.5354   11.6817  -26.1648 C   0  0  0  0  0  0  0  0  0  0  0  0
  -16.7903   12.8601  -25.4982 C   0  0  0  0  0  0  0  0  0  0  0  0
  -17.7798   12.8853  -24.4709 N   0  0  0  0  0  0  0  0  0  0  0  0
  -18.0854   11.6885  -23.6984 C   0  0  0  0  0  0  0  0  0  0  0  0
  -18.7452   12.1830  -22.4045 C   0  0  0  0  0  0  0  0  0  0  0  0
  -19.9436   12.8086  -22.6469 O   0  0  0  0  0  0  0  0  0  0  0  0
  -19.9411   13.6152  -23.7580 C   0  0  0  0  0  0  0  0  0  0  0  0
  -18.5332   14.0762  -24.1376 C   0  0  0  0  0  0  0  0  0  0  0  0
  -16.0703   13.9708  -25.8526 C   0  0  0  0  0  0  0  0  0  0  0  0
  -15.1051   13.8883  -26.8687 C   0  0  0  0  0  0  0  0  0  0  0  0
  -12.7894   14.7660  -28.2745 N   0  0  0  0  0  0  0  0  0  0  0  0
  -11.8067   15.6122  -28.6011 C   0  0  0  0  0  0  0  0  0  0  0  0
  -13.8159   17.9932  -27.2349 C   0  0  0  0  0  0  0  0  0  0  0  0
  1  2  2  0
  2  3  1  0
  3  4  2  0
  3  5  1  0
  5  6  1  0
  6  7  2  0
  7  8  1  0
  8  9  2  0
  9 10  1  0
 10 11  1  0
 11 12  1  0
 12 13  2  0
 12 14  1  0
 14 15  2  0
 15 16  1  0
 16 17  2  0
 17 18  1  0
 18 19  2  0
 19 20  1  0
 20 21  1  0
 21 22  2  0
 22 23  1  0
 23 24  2  0
 24 25  1  0
 25 26  1  0
 26 27  1  0
 27 28  1  0
 28 29  1  0
 29 30  1  0
 24 31  1  0
 31 32  2  0
 19 33  1  0
 33 34  2  0
 10 35  2  0
 35  6  1  0
 34 11  1  0
 34 16  1  0
 32 21  1  0
 30 25  1  0
M  END
$$$$
CHEMBL2437460_diffdock_8
     RDKit          3D

 35 39  0  0  0  0  0  0  0  0999 V2000
  -19.1203   18.0308  -25.8086 C   0  0  0  0  0  0  0  0  0  0  0  0
  -18.4460   17.0078  -26.2905 C   0  0  0  0  0  0  0  0  0  0  0  0
  -17.1796   16.6388  -25.7181 C   0  0  0  0  0  0  0  0  0  0  0  0
  -16.9684   16.8589  -24.4872 O   0  0  0  0  0  0  0  0  0  0  0  0
  -16.1100   16.0311  -26.4282 N   0  0  0  0  0  0  0  0  0  0  0  0
  -14.7475   16.3875  -26.1783 C   0  0  0  0  0  0  0  0  0  0  0  0
  -14.3362   16.9906  -25.0088 C   0  0  0  0  0  0  0  0  0  0  0  0
  -13.0077   17.3340  -24.7745 C   0  0  0  0  0  0  0  0  0  0  0  0
  -12.0749   17.0555  -25.7575 C   0  0  0  0  0  0  0  0  0  0  0  0
  -12.4433   16.4529  -26.9427 C   0  0  0  0  0  0  0  0  0  0  0  0
  -11.4442   16.1925  -27.9119 N   0  0  0  0  0  0  0  0  0  0  0  0
  -10.5257   17.1157  -28.2734 C   0  0  0  0  0  0  0  0  0  0  0  0
  -10.5952   18.2381  -27.7035 O   0  0  0  0  0  0  0  0  0  0  0  0
   -9.5601   16.8457  -29.2182 C   0  0  0  0  0  0  0  0  0  0  0  0
   -9.5083   15.6438  -29.8093 N   0  0  0  0  0  0  0  0  0  0  0  0
  -10.4000   14.7154  -29.4728 C   0  0  0  0  0  0  0  0  0  0  0  0
  -10.3981   13.4614  -30.0453 C   0  0  0  0  0  0  0  0  0  0  0  0
  -11.3436   12.6133  -29.6266 N   0  0  0  0  0  0  0  0  0  0  0  0
  -12.2851   12.8422  -28.7211 C   0  0  0  0  0  0  0  0  0  0  0  0
  -13.2471   11.8828  -28.3389 N   0  0  0  0  0  0  0  0  0  0  0  0
  -14.2543   11.9844  -27.3710 C   0  0  0  0  0  0  0  0  0  0  0  0
  -14.4650   13.1761  -26.6658 C   0  0  0  0  0  0  0  0  0  0  0  0
  -15.4426   13.3035  -25.7118 C   0  0  0  0  0  0  0  0  0  0  0  0
  -16.2739   12.2504  -25.3988 C   0  0  0  0  0  0  0  0  0  0  0  0
  -17.2814   12.4234  -24.4037 N   0  0  0  0  0  0  0  0  0  0  0  0
  -18.5575   11.7278  -24.5037 C   0  0  0  0  0  0  0  0  0  0  0  0
  -19.1372   11.7109  -23.0832 C   0  0  0  0  0  0  0  0  0  0  0  0
  -19.4162   12.9765  -22.6284 O   0  0  0  0  0  0  0  0  0  0  0  0
  -18.4716   13.9146  -22.9643 C   0  0  0  0  0  0  0  0  0  0  0  0
  -17.1075   13.2870  -23.2544 C   0  0  0  0  0  0  0  0  0  0  0  0
  -16.0976   11.0680  -26.0684 C   0  0  0  0  0  0  0  0  0  0  0  0
  -15.0925   10.9544  -27.0418 C   0  0  0  0  0  0  0  0  0  0  0  0
  -12.3011   14.0874  -28.1408 N   0  0  0  0  0  0  0  0  0  0  0  0
  -11.3828   14.9850  -28.5137 C   0  0  0  0  0  0  0  0  0  0  0  0
  -13.7664   16.1318  -27.1300 C   0  0  0  0  0  0  0  0  0  0  0  0
  1  2  2  0
  2  3  1  0
  3  4  2  0
  3  5  1  0
  5  6  1  0
  6  7  2  0
  7  8  1  0
  8  9  2  0
  9 10  1  0
 10 11  1  0
 11 12  1  0
 12 13  2  0
 12 14  1  0
 14 15  2  0
 15 16  1  0
 16 17  2  0
 17 18  1  0
 18 19  2  0
 19 20  1  0
 20 21  1  0
 21 22  2  0
 22 23  1  0
 23 24  2  0
 24 25  1  0
 25 26  1  0
 26 27  1  0
 27 28  1  0
 28 29  1  0
 29 30  1  0
 24 31  1  0
 31 32  2  0
 19 33  1  0
 33 34  2  0
 10 35  2  0
 35  6  1  0
 34 11  1  0
 34 16  1  0
 32 21  1  0
 30 25  1  0
M  END
$$$$
CHEMBL2437460_diffdock_9
     RDKit          3D

 35 39  0  0  0  0  0  0  0  0999 V2000
  -18.8293   16.9636  -24.9570 C   0  0  0  0  0  0  0  0  0  0  0  0
  -17.7852   16.1621  -24.9857 C   0  0  0  0  0  0  0  0  0  0  0  0
  -16.4728   16.6887  -25.2466 C   0  0  0  0  0  0  0  0  0  0  0  0
  -16.0765   17.7094  -24.6068 O   0  0  0  0  0  0  0  0  0  0  0  0
  -15.5510   16.1529  -26.1850 N   0  0  0  0  0  0  0  0  0  0  0  0
  -14.1476   16.4116  -26.0873 C   0  0  0  0  0  0  0  0  0  0  0  0
  -13.5542   16.8838  -24.9360 C   0  0  0  0  0  0  0  0  0  0  0  0
  -12.1872   17.1327  -24.8503 C   0  0  0  0  0  0  0  0  0  0  0  0
  -11.4057   16.8942  -25.9667 C   0  0  0  0  0  0  0  0  0  0  0  0
  -11.9587   16.4216  -27.1390 C   0  0  0  0  0  0  0  0  0  0  0  0
  -11.1086   16.1964  -28.2489 N   0  0  0  0  0  0  0  0  0  0  0  0
  -10.4278   17.1938  -28.8558 C   0  0  0  0  0  0  0  0  0  0  0  0
  -10.5827   18.3535  -28.3863 O   0  0  0  0  0  0  0  0  0  0  0  0
   -9.6045   16.9570  -29.9347 C   0  0  0  0  0  0  0  0  0  0  0  0
   -9.4574   15.7141  -30.4145 N   0  0  0  0  0  0  0  0  0  0  0  0
  -10.1155   14.7126  -29.8366 C   0  0  0  0  0  0  0  0  0  0  0  0
  -10.0052   13.4135  -30.2842 C   0  0  0  0  0  0  0  0  0  0  0  0
  -10.7148   12.4927  -29.6231 N   0  0  0  0  0  0  0  0  0  0  0  0
  -11.5146   12.6879  -28.5834 C   0  0  0  0  0  0  0  0  0  0  0  0
  -12.2283   11.6510  -27.9449 N   0  0  0  0  0  0  0  0  0  0  0  0
  -13.3745   11.7355  -27.1446 C   0  0  0  0  0  0  0  0  0  0  0  0
  -13.7408   12.9381  -26.5268 C   0  0  0  0  0  0  0  0  0  0  0  0
  -14.8568   13.0493  -25.7367 C   0  0  0  0  0  0  0  0  0  0  0  0
  -15.6804   11.9682  -25.5112 C   0  0  0  0  0  0  0  0  0  0  0  0
  -16.8341   12.1248  -24.6869 N   0  0  0  0  0  0  0  0  0  0  0  0
  -17.9941   11.2592  -24.8529 C   0  0  0  0  0  0  0  0  0  0  0  0
  -18.7670   11.3371  -23.5298 C   0  0  0  0  0  0  0  0  0  0  0  0
  -19.2521   12.6000  -23.2932 O   0  0  0  0  0  0  0  0  0  0  0  0
  -18.3829   13.6077  -23.6312 C   0  0  0  0  0  0  0  0  0  0  0  0
  -16.9283   13.1362  -23.6548 C   0  0  0  0  0  0  0  0  0  0  0  0
  -15.3540   10.7744  -26.0994 C   0  0  0  0  0  0  0  0  0  0  0  0
  -14.2084   10.6776  -26.9050 C   0  0  0  0  0  0  0  0  0  0  0  0
  -11.6358   13.9772  -28.1247 N   0  0  0  0  0  0  0  0  0  0  0  0
  -10.9530   14.9481  -28.7404 C   0  0  0  0  0  0  0  0  0  0  0  0
  -13.3129   16.1903  -27.1771 C   0  0  0  0  0  0  0  0  0  0  0  0
  1  2  2  0
  2  3  1  0
  3  4  2  0
  3  5  1  0
  5  6  1  0
  6  7  2  0
  7  8  1  0
  8  9  2  0
  9 10  1  0
 10 11  1  0
 11 12  1  0
 12 13  2  0
 12 14  1  0
 14 15  2  0
 15 16  1  0
 16 17  2  0
 17 18  1  0
 18 19  2  0
 19 20  1  0
 20 21  1  0
 21 22  2  0
 22 23  1  0
 23 24  2  0
 24 25  1  0
 25 26  1  0
 26 27  1  0
 27 28  1  0
 28 29  1  0
 29 30  1  0
 24 31  1  0
 31 32  2  0
 19 33  1  0
 33 34  2  0
 10 35  2  0
 35  6  1  0
 34 11  1  0
 34 16  1  0
 32 21  1  0
 30 25  1  0
M  END
$$$$
CHEMBL2437460_diffdock_10
     RDKit          3D

 35 39  0  0  0  0  0  0  0  0999 V2000
  -18.8916   15.5727  -24.2789 C   0  0  0  0  0  0  0  0  0  0  0  0
  -17.6595   15.8001  -23.8743 C   0  0  0  0  0  0  0  0  0  0  0  0
  -16.8435   16.7754  -24.5455 C   0  0  0  0  0  0  0  0  0  0  0  0
  -16.8419   17.9734  -24.1297 O   0  0  0  0  0  0  0  0  0  0  0  0
  -16.0129   16.5109  -25.6669 N   0  0  0  0  0  0  0  0  0  0  0  0
  -14.6266   16.8630  -25.6715 C   0  0  0  0  0  0  0  0  0  0  0  0
  -14.0157   17.5029  -24.6141 C   0  0  0  0  0  0  0  0  0  0  0  0
  -12.6655   17.8418  -24.6276 C   0  0  0  0  0  0  0  0  0  0  0  0
  -11.9195   17.5202  -25.7475 C   0  0  0  0  0  0  0  0  0  0  0  0
  -12.4911   16.8798  -26.8277 C   0  0  0  0  0  0  0  0  0  0  0  0
  -11.6773   16.5763  -27.9461 N   0  0  0  0  0  0  0  0  0  0  0  0
  -11.0153   17.5275  -28.6415 C   0  0  0  0  0  0  0  0  0  0  0  0
  -11.1537   18.7171  -28.2479 O   0  0  0  0  0  0  0  0  0  0  0  0
  -10.2274   17.2147  -29.7274 C   0  0  0  0  0  0  0  0  0  0  0  0
  -10.0971   15.9413  -30.1253 N   0  0  0  0  0  0  0  0  0  0  0  0
  -10.7375   14.9839  -29.4593 C   0  0  0  0  0  0  0  0  0  0  0  0
  -10.6430   13.6569  -29.8201 C   0  0  0  0  0  0  0  0  0  0  0  0
  -11.3321   12.7859  -29.0751 N   0  0  0  0  0  0  0  0  0  0  0  0
  -12.0978   13.0545  -28.0261 C   0  0  0  0  0  0  0  0  0  0  0  0
  -12.7917   12.0661  -27.2955 N   0  0  0  0  0  0  0  0  0  0  0  0
  -14.0041   12.1736  -26.6027 C   0  0  0  0  0  0  0  0  0  0  0  0
  -14.9021   11.1003  -26.5413 C   0  0  0  0  0  0  0  0  0  0  0  0
  -16.0968   11.1780  -25.8715 C   0  0  0  0  0  0  0  0  0  0  0  0
  -16.4739   12.3313  -25.2191 C   0  0  0  0  0  0  0  0  0  0  0  0
  -17.7224   12.3716  -24.5301 N   0  0  0  0  0  0  0  0  0  0  0  0
  -18.7962   11.4493  -24.8751 C   0  0  0  0  0  0  0  0  0  0  0  0
  -19.7194   11.4052  -23.6503 C   0  0  0  0  0  0  0  0  0  0  0  0
  -20.3105   12.6214  -23.4100 O   0  0  0  0  0  0  0  0  0  0  0  0
  -19.4765   13.6967  -23.5922 C   0  0  0  0  0  0  0  0  0  0  0  0
  -18.0009   13.3148  -23.4672 C   0  0  0  0  0  0  0  0  0  0  0  0
  -15.6207   13.4028  -25.2572 C   0  0  0  0  0  0  0  0  0  0  0  0
  -14.4018   13.3067  -25.9471 C   0  0  0  0  0  0  0  0  0  0  0  0
  -12.2027   14.3725  -27.6532 N   0  0  0  0  0  0  0  0  0  0  0  0
  -11.5390   15.2968  -28.3557 C   0  0  0  0  0  0  0  0  0  0  0  0
  -13.8275   16.5648  -26.7697 C   0  0  0  0  0  0  0  0  0  0  0  0
  1  2  2  0
  2  3  1  0
  3  4  2  0
  3  5  1  0
  5  6  1  0
  6  7  2  0
  7  8  1  0
  8  9  2  0
  9 10  1  0
 10 11  1  0
 11 12  1  0
 12 13  2  0
 12 14  1  0
 14 15  2  0
 15 16  1  0
 16 17  2  0
 17 18  1  0
 18 19  2  0
 19 20  1  0
 20 21  1  0
 21 22  2  0
 22 23  1  0
 23 24  2  0
 24 25  1  0
 25 26  1  0
 26 27  1  0
 27 28  1  0
 28 29  1  0
 29 30  1  0
 24 31  1  0
 31 32  2  0
 19 33  1  0
 33 34  2  0
 10 35  2  0
 35  6  1  0
 34 11  1  0
 34 16  1  0
 32 21  1  0
 30 25  1  0
M  END
$$$$
CHEMBL3671487_diffdock_1
     RDKit          3D

 32 34  0  0  0  0  0  0  0  0999 V2000
  -14.8983   17.9352  -23.5906 C   0  0  0  0  0  0  0  0  0  0  0  0
  -15.4862   17.5419  -24.6852 C   0  0  0  0  0  0  0  0  0  0  0  0
  -14.7774   16.8138  -25.7045 C   0  0  0  0  0  0  0  0  0  0  0  0
  -13.8206   17.3166  -26.3665 O   0  0  0  0  0  0  0  0  0  0  0  0
  -15.1252   15.4750  -26.0195 N   0  0  0  0  0  0  0  0  0  0  0  0
  -14.2526   14.7275  -26.8938 C   0  0  0  0  0  0  0  0  0  0  0  0
  -13.2935   15.3428  -27.6544 C   0  0  0  0  0  0  0  0  0  0  0  0
  -12.4491   14.6645  -28.4947 C   0  0  0  0  0  0  0  0  0  0  0  0
  -11.4916   15.3010  -29.2518 C   0  0  0  0  0  0  0  0  0  0  0  0
  -11.3197   16.7122  -29.2066 N   0  0  0  0  0  0  0  0  0  0  0  0
  -10.2704   17.3885  -29.8744 C   0  0  0  0  0  0  0  0  0  0  0  0
   -8.9875   16.9144  -29.7190 C   0  0  0  0  0  0  0  0  0  0  0  0
   -7.9051   17.5171  -30.3369 C   0  0  0  0  0  0  0  0  0  0  0  0
   -8.1225   18.6335  -31.1370 C   0  0  0  0  0  0  0  0  0  0  0  0
   -6.5886   19.4202  -31.9617 Br  0  0  0  0  0  0  0  0  0  0  0  0
   -9.3978   19.1276  -31.3086 C   0  0  0  0  0  0  0  0  0  0  0  0
  -10.4467   18.4888  -30.6690 C   0  0  0  0  0  0  0  0  0  0  0  0
  -11.6901   18.9888  -30.8494 F   0  0  0  0  0  0  0  0  0  0  0  0
  -10.7126   14.5448  -30.0457 N   0  0  0  0  0  0  0  0  0  0  0  0
  -10.8043   13.2085  -30.1512 C   0  0  0  0  0  0  0  0  0  0  0  0
  -11.7373   12.5803  -29.4145 N   0  0  0  0  0  0  0  0  0  0  0  0
  -12.5349   13.2959  -28.6099 C   0  0  0  0  0  0  0  0  0  0  0  0
  -13.5086   12.6482  -27.8406 C   0  0  0  0  0  0  0  0  0  0  0  0
  -14.3529   13.3321  -27.0004 C   0  0  0  0  0  0  0  0  0  0  0  0
  -15.2856   12.7114  -26.2618 O   0  0  0  0  0  0  0  0  0  0  0  0
  -16.2226   11.7387  -26.4529 C   0  0  0  0  0  0  0  0  0  0  0  0
  -17.2801   11.5649  -25.4101 C   0  0  0  0  0  0  0  0  0  0  0  0
  -18.4469   10.8032  -26.0592 C   0  0  0  0  0  0  0  0  0  0  0  0
  -18.2411    9.3838  -25.9361 N   0  0  0  0  0  0  0  0  0  0  0  0
  -19.2826    8.4436  -26.1387 C   0  0  0  0  0  0  0  0  0  0  0  0
  -19.1038    7.0184  -25.7249 C   0  0  0  0  0  0  0  0  0  0  0  0
  -20.3736    8.7592  -26.6617 O   0  0  0  0  0  0  0  0  0  0  0  0
  1  2  2  0
  2  3  1  0
  3  4  2  0
  3  5  1  0
  5  6  1  0
  6  7  2  0
  7  8  1  0
  8  9  2  0
  9 10  1  0
 10 11  1  0
 11 12  2  0
 12 13  1  0
 13 14  2  0
 14 15  1  0
 14 16  1  0
 16 17  2  0
 17 18  1  0
  9 19  1  0
 19 20  2  0
 20 21  1  0
 21 22  2  0
 22 23  1  0
 23 24  2  0
 24 25  1  0
 25 26  1  0
 26 27  1  0
 27 28  1  0
 28 29  1  0
 29 30  1  0
 30 31  1  0
 30 32  2  0
 24  6  1  0
 22  8  1  0
 17 11  1  0
M  END
$$$$
CHEMBL3671487_diffdock_2
     RDKit          3D

 32 34  0  0  0  0  0  0  0  0999 V2000
  -15.4953   17.5655  -23.4762 C   0  0  0  0  0  0  0  0  0  0  0  0
  -15.8738   16.6563  -24.3297 C   0  0  0  0  0  0  0  0  0  0  0  0
  -15.0135   16.2154  -25.3960 C   0  0  0  0  0  0  0  0  0  0  0  0
  -13.8367   16.6585  -25.5554 O   0  0  0  0  0  0  0  0  0  0  0  0
  -15.4532   15.2464  -26.3342 N   0  0  0  0  0  0  0  0  0  0  0  0
  -14.4608   14.5586  -27.1257 C   0  0  0  0  0  0  0  0  0  0  0  0
  -13.3781   15.2121  -27.6526 C   0  0  0  0  0  0  0  0  0  0  0  0
  -12.4179   14.5908  -28.4082 C   0  0  0  0  0  0  0  0  0  0  0  0
  -11.3370   15.2653  -28.9298 C   0  0  0  0  0  0  0  0  0  0  0  0
  -11.1503   16.6587  -28.7134 N   0  0  0  0  0  0  0  0  0  0  0  0
  -10.1590   17.4216  -29.3764 C   0  0  0  0  0  0  0  0  0  0  0  0
   -8.9756   16.8025  -29.7097 C   0  0  0  0  0  0  0  0  0  0  0  0
   -7.9551   17.4762  -30.3588 C   0  0  0  0  0  0  0  0  0  0  0  0
   -8.1329   18.8170  -30.6823 C   0  0  0  0  0  0  0  0  0  0  0  0
   -6.6881   19.6912  -31.5768 Br  0  0  0  0  0  0  0  0  0  0  0  0
   -9.3087   19.4596  -30.3594 C   0  0  0  0  0  0  0  0  0  0  0  0
  -10.2989   18.7414  -29.7104 C   0  0  0  0  0  0  0  0  0  0  0  0
  -11.4449   19.3896  -29.4018 F   0  0  0  0  0  0  0  0  0  0  0  0
  -10.4503   14.5642  -29.6586 N   0  0  0  0  0  0  0  0  0  0  0  0
  -10.5465   13.2485  -29.9134 C   0  0  0  0  0  0  0  0  0  0  0  0
  -11.5997   12.5834  -29.4071 N   0  0  0  0  0  0  0  0  0  0  0  0
  -12.5072   13.2438  -28.6749 C   0  0  0  0  0  0  0  0  0  0  0  0
  -13.6063   12.5576  -28.1453 C   0  0  0  0  0  0  0  0  0  0  0  0
  -14.5663   13.1845  -27.3891 C   0  0  0  0  0  0  0  0  0  0  0  0
  -15.6194   12.5267  -26.8800 O   0  0  0  0  0  0  0  0  0  0  0  0
  -16.0249   11.2290  -26.7702 C   0  0  0  0  0  0  0  0  0  0  0  0
  -17.4086   10.9636  -26.2693 C   0  0  0  0  0  0  0  0  0  0  0  0
  -17.2795   10.2087  -24.9364 C   0  0  0  0  0  0  0  0  0  0  0  0
  -17.7768   11.0212  -23.8571 N   0  0  0  0  0  0  0  0  0  0  0  0
  -19.0977   10.8971  -23.3576 C   0  0  0  0  0  0  0  0  0  0  0  0
  -19.6740   11.9577  -22.4758 C   0  0  0  0  0  0  0  0  0  0  0  0
  -19.8233    9.9151  -23.6273 O   0  0  0  0  0  0  0  0  0  0  0  0
  1  2  2  0
  2  3  1  0
  3  4  2  0
  3  5  1  0
  5  6  1  0
  6  7  2  0
  7  8  1  0
  8  9  2  0
  9 10  1  0
 10 11  1  0
 11 12  2  0
 12 13  1  0
 13 14  2  0
 14 15  1  0
 14 16  1  0
 16 17  2  0
 17 18  1  0
  9 19  1  0
 19 20  2  0
 20 21  1  0
 21 22  2  0
 22 23  1  0
 23 24  2  0
 24 25  1  0
 25 26  1  0
 26 27  1  0
 27 28  1  0
 28 29  1  0
 29 30  1  0
 30 31  1  0
 30 32  2  0
 24  6  1  0
 22  8  1  0
 17 11  1  0
M  END
$$$$
CHEMBL3671487_diffdock_3
     RDKit          3D

 32 34  0  0  0  0  0  0  0  0999 V2000
  -16.4857   18.7584  -24.8554 C   0  0  0  0  0  0  0  0  0  0  0  0
  -16.6197   17.5546  -25.3361 C   0  0  0  0  0  0  0  0  0  0  0  0
  -15.5825   16.9319  -26.1158 C   0  0  0  0  0  0  0  0  0  0  0  0
  -15.0616   17.4850  -27.1304 O   0  0  0  0  0  0  0  0  0  0  0  0
  -15.0877   15.6464  -25.7767 N   0  0  0  0  0  0  0  0  0  0  0  0
  -14.2561   14.9571  -26.7348 C   0  0  0  0  0  0  0  0  0  0  0  0
  -13.2687   15.6036  -27.4306 C   0  0  0  0  0  0  0  0  0  0  0  0
  -12.4617   14.9807  -28.3469 C   0  0  0  0  0  0  0  0  0  0  0  0
  -11.4749   15.6481  -29.0369 C   0  0  0  0  0  0  0  0  0  0  0  0
  -11.2316   17.0354  -28.8380 N   0  0  0  0  0  0  0  0  0  0  0  0
  -10.1991   17.7450  -29.4971 C   0  0  0  0  0  0  0  0  0  0  0  0
   -9.2736   18.4125  -28.7271 C   0  0  0  0  0  0  0  0  0  0  0  0
   -8.2330   19.1300  -29.2920 C   0  0  0  0  0  0  0  0  0  0  0  0
   -8.1215   19.1764  -30.6774 C   0  0  0  0  0  0  0  0  0  0  0  0
   -6.6648   20.1830  -31.3960 Br  0  0  0  0  0  0  0  0  0  0  0  0
   -9.0355   18.5164  -31.4704 C   0  0  0  0  0  0  0  0  0  0  0  0
  -10.0580   17.8127  -30.8568 C   0  0  0  0  0  0  0  0  0  0  0  0
  -10.9448   17.1722  -31.6519 F   0  0  0  0  0  0  0  0  0  0  0  0
  -10.7369   14.9460  -29.9152 N   0  0  0  0  0  0  0  0  0  0  0  0
  -10.8964   13.6358  -30.1664 C   0  0  0  0  0  0  0  0  0  0  0  0
  -11.8584   12.9777  -29.4960 N   0  0  0  0  0  0  0  0  0  0  0  0
  -12.6169   13.6393  -28.6113 C   0  0  0  0  0  0  0  0  0  0  0  0
  -13.6204   12.9602  -27.9104 C   0  0  0  0  0  0  0  0  0  0  0  0
  -14.4271   13.5887  -26.9935 C   0  0  0  0  0  0  0  0  0  0  0  0
  -15.3884   12.9378  -26.3204 O   0  0  0  0  0  0  0  0  0  0  0  0
  -15.9920   11.7160  -26.3783 C   0  0  0  0  0  0  0  0  0  0  0  0
  -17.0323   11.3952  -25.3532 C   0  0  0  0  0  0  0  0  0  0  0  0
  -18.3738   11.2454  -26.0890 C   0  0  0  0  0  0  0  0  0  0  0  0
  -19.4639   11.5370  -25.1951 N   0  0  0  0  0  0  0  0  0  0  0  0
  -20.8210   11.4372  -25.5925 C   0  0  0  0  0  0  0  0  0  0  0  0
  -21.9081   11.9421  -24.6993 C   0  0  0  0  0  0  0  0  0  0  0  0
  -21.1608   10.9329  -26.6851 O   0  0  0  0  0  0  0  0  0  0  0  0
  1  2  2  0
  2  3  1  0
  3  4  2  0
  3  5  1  0
  5  6  1  0
  6  7  2  0
  7  8  1  0
  8  9  2  0
  9 10  1  0
 10 11  1  0
 11 12  2  0
 12 13  1  0
 13 14  2  0
 14 15  1  0
 14 16  1  0
 16 17  2  0
 17 18  1  0
  9 19  1  0
 19 20  2  0
 20 21  1  0
 21 22  2  0
 22 23  1  0
 23 24  2  0
 24 25  1  0
 25 26  1  0
 26 27  1  0
 27 28  1  0
 28 29  1  0
 29 30  1  0
 30 31  1  0
 30 32  2  0
 24  6  1  0
 22  8  1  0
 17 11  1  0
M  END
$$$$
CHEMBL3671487_diffdock_4
     RDKit          3D

 32 34  0  0  0  0  0  0  0  0999 V2000
  -14.8557   17.5555  -22.7868 C   0  0  0  0  0  0  0  0  0  0  0  0
  -15.1181   16.5472  -23.5696 C   0  0  0  0  0  0  0  0  0  0  0  0
  -14.4419   16.3706  -24.8278 C   0  0  0  0  0  0  0  0  0  0  0  0
  -13.5068   17.1327  -25.2165 O   0  0  0  0  0  0  0  0  0  0  0  0
  -14.7991   15.3150  -25.7057 N   0  0  0  0  0  0  0  0  0  0  0  0
  -13.7579   14.6918  -26.4880 C   0  0  0  0  0  0  0  0  0  0  0  0
  -12.8528   15.4303  -27.2037 C   0  0  0  0  0  0  0  0  0  0  0  0
  -11.8527   14.8719  -27.9566 C   0  0  0  0  0  0  0  0  0  0  0  0
  -10.9528   15.6313  -28.6698 C   0  0  0  0  0  0  0  0  0  0  0  0
  -11.0072   17.0526  -28.6674 N   0  0  0  0  0  0  0  0  0  0  0  0
  -10.1302   17.8646  -29.4262 C   0  0  0  0  0  0  0  0  0  0  0  0
   -9.1939   18.6170  -28.7538 C   0  0  0  0  0  0  0  0  0  0  0  0
   -8.2992   19.4370  -29.4198 C   0  0  0  0  0  0  0  0  0  0  0  0
   -8.3497   19.5011  -30.8081 C   0  0  0  0  0  0  0  0  0  0  0  0
   -7.0892   20.6511  -31.6686 Br  0  0  0  0  0  0  0  0  0  0  0  0
   -9.2780   18.7575  -31.5045 C   0  0  0  0  0  0  0  0  0  0  0  0
  -10.1507   17.9526  -30.7919 C   0  0  0  0  0  0  0  0  0  0  0  0
  -11.0542   17.2311  -31.4931 F   0  0  0  0  0  0  0  0  0  0  0  0
  -10.0083   14.9868  -29.3780 N   0  0  0  0  0  0  0  0  0  0  0  0
   -9.8820   13.6505  -29.4379 C   0  0  0  0  0  0  0  0  0  0  0  0
  -10.7577   12.9026  -28.7437 N   0  0  0  0  0  0  0  0  0  0  0  0
  -11.7149   13.5044  -28.0245 C   0  0  0  0  0  0  0  0  0  0  0  0
  -12.6299   12.7317  -27.2999 C   0  0  0  0  0  0  0  0  0  0  0  0
  -13.6308   13.2957  -26.5472 C   0  0  0  0  0  0  0  0  0  0  0  0
  -14.5075   12.5554  -25.8514 O   0  0  0  0  0  0  0  0  0  0  0  0
  -15.4442   11.6023  -26.1248 C   0  0  0  0  0  0  0  0  0  0  0  0
  -16.1582   10.9663  -24.9752 C   0  0  0  0  0  0  0  0  0  0  0  0
  -17.6039   10.6964  -25.4227 C   0  0  0  0  0  0  0  0  0  0  0  0
  -18.4485   11.8054  -25.0637 N   0  0  0  0  0  0  0  0  0  0  0  0
  -19.1697   11.8488  -23.8440 C   0  0  0  0  0  0  0  0  0  0  0  0
  -20.0050   13.0407  -23.5030 C   0  0  0  0  0  0  0  0  0  0  0  0
  -19.1390   10.9112  -23.0172 O   0  0  0  0  0  0  0  0  0  0  0  0
  1  2  2  0
  2  3  1  0
  3  4  2  0
  3  5  1  0
  5  6  1  0
  6  7  2  0
  7  8  1  0
  8  9  2  0
  9 10  1  0
 10 11  1  0
 11 12  2  0
 12 13  1  0
 13 14  2  0
 14 15  1  0
 14 16  1  0
 16 17  2  0
 17 18  1  0
  9 19  1  0
 19 20  2  0
 20 21  1  0
 21 22  2  0
 22 23  1  0
 23 24  2  0
 24 25  1  0
 25 26  1  0
 26 27  1  0
 27 28  1  0
 28 29  1  0
 29 30  1  0
 30 31  1  0
 30 32  2  0
 24  6  1  0
 22  8  1  0
 17 11  1  0
M  END
$$$$
CHEMBL3671487_diffdock_5
     RDKit          3D

 32 34  0  0  0  0  0  0  0  0999 V2000
  -15.0337   17.2800  -22.7987 C   0  0  0  0  0  0  0  0  0  0  0  0
  -15.4914   16.9507  -23.9736 C   0  0  0  0  0  0  0  0  0  0  0  0
  -14.6249   16.4580  -25.0119 C   0  0  0  0  0  0  0  0  0  0  0  0
  -13.4179   16.8265  -25.1299 O   0  0  0  0  0  0  0  0  0  0  0  0
  -15.0926   15.5198  -25.9677 N   0  0  0  0  0  0  0  0  0  0  0  0
  -14.1239   14.8559  -26.8076 C   0  0  0  0  0  0  0  0  0  0  0  0
  -13.1431   15.5500  -27.4658 C   0  0  0  0  0  0  0  0  0  0  0  0
  -12.2084   14.9522  -28.2707 C   0  0  0  0  0  0  0  0  0  0  0  0
  -11.2305   15.6674  -28.9245 C   0  0  0  0  0  0  0  0  0  0  0  0
  -11.1307   17.0810  -28.8025 N   0  0  0  0  0  0  0  0  0  0  0  0
  -10.2310   17.8647  -29.5645 C   0  0  0  0  0  0  0  0  0  0  0  0
   -8.9095   17.4820  -29.6075 C   0  0  0  0  0  0  0  0  0  0  0  0
   -7.9653   18.1925  -30.3288 C   0  0  0  0  0  0  0  0  0  0  0  0
   -8.3657   19.3254  -31.0291 C   0  0  0  0  0  0  0  0  0  0  0  0
   -7.0161   20.2629  -32.0045 Br  0  0  0  0  0  0  0  0  0  0  0  0
   -9.6832   19.7293  -31.0018 C   0  0  0  0  0  0  0  0  0  0  0  0
  -10.5889   18.9843  -30.2656 C   0  0  0  0  0  0  0  0  0  0  0  0
  -11.8766   19.3970  -30.2511 F   0  0  0  0  0  0  0  0  0  0  0  0
  -10.3604   14.9867  -29.6917 N   0  0  0  0  0  0  0  0  0  0  0  0
  -10.3795   13.6543  -29.8645 C   0  0  0  0  0  0  0  0  0  0  0  0
  -11.3320   12.9496  -29.2288 N   0  0  0  0  0  0  0  0  0  0  0  0
  -12.2194   13.5885  -28.4542 C   0  0  0  0  0  0  0  0  0  0  0  0
  -13.2137   12.8609  -27.7899 C   0  0  0  0  0  0  0  0  0  0  0  0
  -14.1487   13.4643  -26.9848 C   0  0  0  0  0  0  0  0  0  0  0  0
  -15.1013   12.7670  -26.3468 O   0  0  0  0  0  0  0  0  0  0  0  0
  -15.5062   11.4662  -26.2782 C   0  0  0  0  0  0  0  0  0  0  0  0
  -16.5673   11.1104  -25.2865 C   0  0  0  0  0  0  0  0  0  0  0  0
  -16.1752   11.7471  -23.9433 C   0  0  0  0  0  0  0  0  0  0  0  0
  -17.2843   11.6930  -23.0273 N   0  0  0  0  0  0  0  0  0  0  0  0
  -18.4656   12.4535  -23.2171 C   0  0  0  0  0  0  0  0  0  0  0  0
  -19.2137   12.9922  -22.0404 C   0  0  0  0  0  0  0  0  0  0  0  0
  -18.9237   12.7016  -24.3538 O   0  0  0  0  0  0  0  0  0  0  0  0
  1  2  2  0
  2  3  1  0
  3  4  2  0
  3  5  1  0
  5  6  1  0
  6  7  2  0
  7  8  1  0
  8  9  2  0
  9 10  1  0
 10 11  1  0
 11 12  2  0
 12 13  1  0
 13 14  2  0
 14 15  1  0
 14 16  1  0
 16 17  2  0
 17 18  1  0
  9 19  1  0
 19 20  2  0
 20 21  1  0
 21 22  2  0
 22 23  1  0
 23 24  2  0
 24 25  1  0
 25 26  1  0
 26 27  1  0
 27 28  1  0
 28 29  1  0
 29 30  1  0
 30 31  1  0
 30 32  2  0
 24  6  1  0
 22  8  1  0
 17 11  1  0
M  END
$$$$
CHEMBL3671487_diffdock_6
     RDKit          3D

 32 34  0  0  0  0  0  0  0  0999 V2000
  -17.5964   17.4579  -25.2433 C   0  0  0  0  0  0  0  0  0  0  0  0
  -16.3349   17.1845  -25.0643 C   0  0  0  0  0  0  0  0  0  0  0  0
  -15.5653   16.4814  -26.0568 C   0  0  0  0  0  0  0  0  0  0  0  0
  -15.2267   17.0057  -27.1600 O   0  0  0  0  0  0  0  0  0  0  0  0
  -15.1435   15.1444  -25.8400 N   0  0  0  0  0  0  0  0  0  0  0  0
  -14.2796   14.5304  -26.8204 C   0  0  0  0  0  0  0  0  0  0  0  0
  -13.2528   15.2196  -27.4101 C   0  0  0  0  0  0  0  0  0  0  0  0
  -12.4144   14.6683  -28.3439 C   0  0  0  0  0  0  0  0  0  0  0  0
  -11.3881   15.3777  -28.9259 C   0  0  0  0  0  0  0  0  0  0  0  0
  -11.1343   16.7363  -28.5898 N   0  0  0  0  0  0  0  0  0  0  0  0
   -9.9768   17.4364  -29.0074 C   0  0  0  0  0  0  0  0  0  0  0  0
   -8.8379   16.7108  -29.2746 C   0  0  0  0  0  0  0  0  0  0  0  0
   -7.6641   17.3176  -29.6876 C   0  0  0  0  0  0  0  0  0  0  0  0
   -7.6370   18.7000  -29.8361 C   0  0  0  0  0  0  0  0  0  0  0  0
   -5.9879   19.4777  -30.4083 Br  0  0  0  0  0  0  0  0  0  0  0  0
   -8.7643   19.4490  -29.5749 C   0  0  0  0  0  0  0  0  0  0  0  0
   -9.9134   18.7945  -29.1644 C   0  0  0  0  0  0  0  0  0  0  0  0
  -11.0086   19.5468  -28.9127 F   0  0  0  0  0  0  0  0  0  0  0  0
  -10.6216   14.7454  -29.8323 N   0  0  0  0  0  0  0  0  0  0  0  0
  -10.7883   13.4667  -30.2098 C   0  0  0  0  0  0  0  0  0  0  0  0
  -11.7887   12.7679  -29.6453 N   0  0  0  0  0  0  0  0  0  0  0  0
  -12.5768   13.3597  -28.7373 C   0  0  0  0  0  0  0  0  0  0  0  0
  -13.6203   12.6380  -28.1461 C   0  0  0  0  0  0  0  0  0  0  0  0
  -14.4584   13.1948  -27.2112 C   0  0  0  0  0  0  0  0  0  0  0  0
  -15.4582   12.5029  -26.6433 O   0  0  0  0  0  0  0  0  0  0  0  0
  -16.0514   11.2868  -26.8158 C   0  0  0  0  0  0  0  0  0  0  0  0
  -17.1368   10.8916  -25.8663 C   0  0  0  0  0  0  0  0  0  0  0  0
  -17.0991   11.8771  -24.6870 C   0  0  0  0  0  0  0  0  0  0  0  0
  -18.0635   12.9267  -24.8879 N   0  0  0  0  0  0  0  0  0  0  0  0
  -19.2743   12.9980  -24.1539 C   0  0  0  0  0  0  0  0  0  0  0  0
  -20.2180   14.1382  -24.3636 C   0  0  0  0  0  0  0  0  0  0  0  0
  -19.5988   12.1281  -23.3164 O   0  0  0  0  0  0  0  0  0  0  0  0
  1  2  2  0
  2  3  1  0
  3  4  2  0
  3  5  1  0
  5  6  1  0
  6  7  2  0
  7  8  1  0
  8  9  2  0
  9 10  1  0
 10 11  1  0
 11 12  2  0
 12 13  1  0
 13 14  2  0
 14 15  1  0
 14 16  1  0
 16 17  2  0
 17 18  1  0
  9 19  1  0
 19 20  2  0
 20 21  1  0
 21 22  2  0
 22 23  1  0
 23 24  2  0
 24 25  1  0
 25 26  1  0
 26 27  1  0
 27 28  1  0
 28 29  1  0
 29 30  1  0
 30 31  1  0
 30 32  2  0
 24  6  1  0
 22  8  1  0
 17 11  1  0
M  END
$$$$
CHEMBL3671487_diffdock_7
     RDKit          3D

 32 34  0  0  0  0  0  0  0  0999 V2000
  -17.7676   17.3095  -25.3463 C   0  0  0  0  0  0  0  0  0  0  0  0
  -16.4784   17.2317  -25.1725 C   0  0  0  0  0  0  0  0  0  0  0  0
  -15.6265   16.5632  -26.1207 C   0  0  0  0  0  0  0  0  0  0  0  0
  -15.0593   17.1687  -27.0788 O   0  0  0  0  0  0  0  0  0  0  0  0
  -15.3794   15.1697  -26.0229 N   0  0  0  0  0  0  0  0  0  0  0  0
  -14.4161   14.5794  -26.9219 C   0  0  0  0  0  0  0  0  0  0  0  0
  -13.3307   15.2800  -27.3779 C   0  0  0  0  0  0  0  0  0  0  0  0
  -12.3976   14.7512  -28.2316 C   0  0  0  0  0  0  0  0  0  0  0  0
  -11.3135   15.4718  -28.6795 C   0  0  0  0  0  0  0  0  0  0  0  0
  -11.0948   16.8191  -28.2794 N   0  0  0  0  0  0  0  0  0  0  0  0
   -9.9891   17.5887  -28.7144 C   0  0  0  0  0  0  0  0  0  0  0  0
   -8.9331   16.9342  -29.3073 C   0  0  0  0  0  0  0  0  0  0  0  0
   -7.8141   17.6116  -29.7605 C   0  0  0  0  0  0  0  0  0  0  0  0
   -7.7572   18.9931  -29.6113 C   0  0  0  0  0  0  0  0  0  0  0  0
   -6.1867   19.8702  -30.2563 Br  0  0  0  0  0  0  0  0  0  0  0  0
   -8.8017   19.6717  -29.0210 C   0  0  0  0  0  0  0  0  0  0  0  0
   -9.8986   18.9481  -28.5844 C   0  0  0  0  0  0  0  0  0  0  0  0
  -10.9127   19.6319  -28.0076 F   0  0  0  0  0  0  0  0  0  0  0  0
  -10.4549   14.8615  -29.5158 N   0  0  0  0  0  0  0  0  0  0  0  0
  -10.5823   13.5948  -29.9454 C   0  0  0  0  0  0  0  0  0  0  0  0
  -11.6389   12.8852  -29.5118 N   0  0  0  0  0  0  0  0  0  0  0  0
  -12.5190   13.4549  -28.6772 C   0  0  0  0  0  0  0  0  0  0  0  0
  -13.6214   12.7219  -28.2225 C   0  0  0  0  0  0  0  0  0  0  0  0
  -14.5541   13.2561  -27.3675 C   0  0  0  0  0  0  0  0  0  0  0  0
  -15.6104   12.5533  -26.9303 O   0  0  0  0  0  0  0  0  0  0  0  0
  -15.8219   11.3671  -26.2910 C   0  0  0  0  0  0  0  0  0  0  0  0
  -17.2317   10.9730  -25.9861 C   0  0  0  0  0  0  0  0  0  0  0  0
  -17.6625   11.7402  -24.7256 C   0  0  0  0  0  0  0  0  0  0  0  0
  -16.8881   11.3056  -23.5926 N   0  0  0  0  0  0  0  0  0  0  0  0
  -17.2024   11.6884  -22.2643 C   0  0  0  0  0  0  0  0  0  0  0  0
  -16.9674   10.7428  -21.1306 C   0  0  0  0  0  0  0  0  0  0  0  0
  -17.6802   12.8106  -21.9889 O   0  0  0  0  0  0  0  0  0  0  0  0
  1  2  2  0
  2  3  1  0
  3  4  2  0
  3  5  1  0
  5  6  1  0
  6  7  2  0
  7  8  1  0
  8  9  2  0
  9 10  1  0
 10 11  1  0
 11 12  2  0
 12 13  1  0
 13 14  2  0
 14 15  1  0
 14 16  1  0
 16 17  2  0
 17 18  1  0
  9 19  1  0
 19 20  2  0
 20 21  1  0
 21 22  2  0
 22 23  1  0
 23 24  2  0
 24 25  1  0
 25 26  1  0
 26 27  1  0
 27 28  1  0
 28 29  1  0
 29 30  1  0
 30 31  1  0
 30 32  2  0
 24  6  1  0
 22  8  1  0
 17 11  1  0
M  END
$$$$
CHEMBL3671487_diffdock_8
     RDKit          3D

 32 34  0  0  0  0  0  0  0  0999 V2000
  -16.5257   18.8181  -24.8045 C   0  0  0  0  0  0  0  0  0  0  0  0
  -16.6971   17.5664  -25.1240 C   0  0  0  0  0  0  0  0  0  0  0  0
  -15.8233   16.8960  -26.0506 C   0  0  0  0  0  0  0  0  0  0  0  0
  -15.3512   17.4633  -27.0810 O   0  0  0  0  0  0  0  0  0  0  0  0
  -15.4444   15.5440  -25.8476 N   0  0  0  0  0  0  0  0  0  0  0  0
  -14.5392   14.9362  -26.7941 C   0  0  0  0  0  0  0  0  0  0  0  0
  -13.5837   15.6665  -27.4503 C   0  0  0  0  0  0  0  0  0  0  0  0
  -12.7090   15.1222  -28.3545 C   0  0  0  0  0  0  0  0  0  0  0  0
  -11.7557   15.8731  -29.0046 C   0  0  0  0  0  0  0  0  0  0  0  0
  -11.6202   17.2702  -28.7744 N   0  0  0  0  0  0  0  0  0  0  0  0
  -10.6109   18.0617  -29.3736 C   0  0  0  0  0  0  0  0  0  0  0  0
   -9.6484   18.6151  -28.5598 C   0  0  0  0  0  0  0  0  0  0  0  0
   -8.6270   19.4013  -29.0651 C   0  0  0  0  0  0  0  0  0  0  0  0
   -8.5739   19.6375  -30.4346 C   0  0  0  0  0  0  0  0  0  0  0  0
   -7.1410   20.7304  -31.0702 Br  0  0  0  0  0  0  0  0  0  0  0  0
   -9.5259   19.0946  -31.2706 C   0  0  0  0  0  0  0  0  0  0  0  0
  -10.5270   18.3153  -30.7159 C   0  0  0  0  0  0  0  0  0  0  0  0
  -11.4516   17.7919  -31.5525 F   0  0  0  0  0  0  0  0  0  0  0  0
  -10.9452   15.2441  -29.8742 N   0  0  0  0  0  0  0  0  0  0  0  0
  -11.0014   13.9309  -30.1530 C   0  0  0  0  0  0  0  0  0  0  0  0
  -11.9301   13.1914  -29.5216 N   0  0  0  0  0  0  0  0  0  0  0  0
  -12.7584   13.7784  -28.6470 C   0  0  0  0  0  0  0  0  0  0  0  0
  -13.7278   13.0145  -27.9866 C   0  0  0  0  0  0  0  0  0  0  0  0
  -14.6026   13.5644  -27.0817 C   0  0  0  0  0  0  0  0  0  0  0  0
  -15.5312   12.8321  -26.4475 O   0  0  0  0  0  0  0  0  0  0  0  0
  -15.9652   11.5391  -26.4685 C   0  0  0  0  0  0  0  0  0  0  0  0
  -17.3678   11.2599  -26.0318 C   0  0  0  0  0  0  0  0  0  0  0  0
  -17.4406   11.5229  -24.5190 C   0  0  0  0  0  0  0  0  0  0  0  0
  -18.7781   11.2903  -24.0399 N   0  0  0  0  0  0  0  0  0  0  0  0
  -19.1419   11.4714  -22.6817 C   0  0  0  0  0  0  0  0  0  0  0  0
  -20.5589   11.2767  -22.2475 C   0  0  0  0  0  0  0  0  0  0  0  0
  -18.3103   11.7953  -21.8059 O   0  0  0  0  0  0  0  0  0  0  0  0
  1  2  2  0
  2  3  1  0
  3  4  2  0
  3  5  1  0
  5  6  1  0
  6  7  2  0
  7  8  1  0
  8  9  2  0
  9 10  1  0
 10 11  1  0
 11 12  2  0
 12 13  1  0
 13 14  2  0
 14 15  1  0
 14 16  1  0
 16 17  2  0
 17 18  1  0
  9 19  1  0
 19 20  2  0
 20 21  1  0
 21 22  2  0
 22 23  1  0
 23 24  2  0
 24 25  1  0
 25 26  1  0
 26 27  1  0
 27 28  1  0
 28 29  1  0
 29 30  1  0
 30 31  1  0
 30 32  2  0
 24  6  1  0
 22  8  1  0
 17 11  1  0
M  END
$$$$
CHEMBL3671487_diffdock_9
     RDKit          3D

 32 34  0  0  0  0  0  0  0  0999 V2000
  -16.8726   10.8128  -25.7653 C   0  0  0  0  0  0  0  0  0  0  0  0
  -15.8812   11.4330  -25.1902 C   0  0  0  0  0  0  0  0  0  0  0  0
  -15.4426   12.7306  -25.6321 C   0  0  0  0  0  0  0  0  0  0  0  0
  -14.7528   12.9005  -26.6818 O   0  0  0  0  0  0  0  0  0  0  0  0
  -15.7693   13.8997  -24.8980 N   0  0  0  0  0  0  0  0  0  0  0  0
  -15.2012   15.1572  -25.3228 C   0  0  0  0  0  0  0  0  0  0  0  0
  -14.2331   15.2218  -26.2900 C   0  0  0  0  0  0  0  0  0  0  0  0
  -13.6721   16.3975  -26.7167 C   0  0  0  0  0  0  0  0  0  0  0  0
  -12.6994   16.4417  -27.6898 C   0  0  0  0  0  0  0  0  0  0  0  0
  -12.2147   15.2602  -28.3162 N   0  0  0  0  0  0  0  0  0  0  0  0
  -10.9795   15.1971  -29.0050 C   0  0  0  0  0  0  0  0  0  0  0  0
  -10.4370   16.3707  -29.4777 C   0  0  0  0  0  0  0  0  0  0  0  0
   -9.2334   16.3969  -30.1613 C   0  0  0  0  0  0  0  0  0  0  0  0
   -8.5548   15.2021  -30.3757 C   0  0  0  0  0  0  0  0  0  0  0  0
   -6.8998   15.3042  -31.3256 Br  0  0  0  0  0  0  0  0  0  0  0  0
   -9.0771   14.0137  -29.9123 C   0  0  0  0  0  0  0  0  0  0  0  0
  -10.2841   14.0409  -29.2342 C   0  0  0  0  0  0  0  0  0  0  0  0
  -10.7802   12.8647  -28.7878 F   0  0  0  0  0  0  0  0  0  0  0  0
  -12.2126   17.6462  -28.0380 N   0  0  0  0  0  0  0  0  0  0  0  0
  -12.6107   18.8116  -27.5008 C   0  0  0  0  0  0  0  0  0  0  0  0
  -13.5605   18.7758  -26.5497 N   0  0  0  0  0  0  0  0  0  0  0  0
  -14.0729   17.5963  -26.1728 C   0  0  0  0  0  0  0  0  0  0  0  0
  -15.0616   17.5519  -25.1830 C   0  0  0  0  0  0  0  0  0  0  0  0
  -15.6204   16.3713  -24.7582 C   0  0  0  0  0  0  0  0  0  0  0  0
  -16.5692   16.3284  -23.8101 O   0  0  0  0  0  0  0  0  0  0  0  0
  -16.9544   17.0970  -22.7511 C   0  0  0  0  0  0  0  0  0  0  0  0
  -17.2212   16.4159  -21.4469 C   0  0  0  0  0  0  0  0  0  0  0  0
  -18.6155   16.8570  -20.9731 C   0  0  0  0  0  0  0  0  0  0  0  0
  -19.2124   17.7374  -21.9432 N   0  0  0  0  0  0  0  0  0  0  0  0
  -20.5040   18.2958  -21.7707 C   0  0  0  0  0  0  0  0  0  0  0  0
  -20.9967   19.3589  -22.6988 C   0  0  0  0  0  0  0  0  0  0  0  0
  -21.2713   17.9308  -20.8534 O   0  0  0  0  0  0  0  0  0  0  0  0
  1  2  2  0
  2  3  1  0
  3  4  2  0
  3  5  1  0
  5  6  1  0
  6  7  2  0
  7  8  1  0
  8  9  2  0
  9 10  1  0
 10 11  1  0
 11 12  2  0
 12 13  1  0
 13 14  2  0
 14 15  1  0
 14 16  1  0
 16 17  2  0
 17 18  1  0
  9 19  1  0
 19 20  2  0
 20 21  1  0
 21 22  2  0
 22 23  1  0
 23 24  2  0
 24 25  1  0
 25 26  1  0
 26 27  1  0
 27 28  1  0
 28 29  1  0
 29 30  1  0
 30 31  1  0
 30 32  2  0
 24  6  1  0
 22  8  1  0
 17 11  1  0
M  END
$$$$
CHEMBL3671487_diffdock_10
     RDKit          3D

 32 34  0  0  0  0  0  0  0  0999 V2000
  -17.3702   16.8702  -24.5964 C   0  0  0  0  0  0  0  0  0  0  0  0
  -16.5558   17.3165  -25.5107 C   0  0  0  0  0  0  0  0  0  0  0  0
  -15.4953   16.5012  -26.0419 C   0  0  0  0  0  0  0  0  0  0  0  0
  -14.2710   16.8078  -25.9260 O   0  0  0  0  0  0  0  0  0  0  0  0
  -15.7791   15.2948  -26.7321 N   0  0  0  0  0  0  0  0  0  0  0  0
  -14.7106   14.6554  -27.4629 C   0  0  0  0  0  0  0  0  0  0  0  0
  -13.6415   15.3634  -27.9453 C   0  0  0  0  0  0  0  0  0  0  0  0
  -12.6108   14.7890  -28.6428 C   0  0  0  0  0  0  0  0  0  0  0  0
  -11.5450   15.5178  -29.1204 C   0  0  0  0  0  0  0  0  0  0  0  0
  -11.4489   16.9222  -28.9163 N   0  0  0  0  0  0  0  0  0  0  0  0
  -10.4861   17.7364  -29.5601 C   0  0  0  0  0  0  0  0  0  0  0  0
   -9.3963   17.1241  -30.1366 C   0  0  0  0  0  0  0  0  0  0  0  0
   -8.4096   17.8466  -30.7853 C   0  0  0  0  0  0  0  0  0  0  0  0
   -8.5246   19.2308  -30.8553 C   0  0  0  0  0  0  0  0  0  0  0  0
   -7.1307   20.1711  -31.7632 Br  0  0  0  0  0  0  0  0  0  0  0  0
   -9.6064   19.8676  -30.2860 C   0  0  0  0  0  0  0  0  0  0  0  0
  -10.5663   19.0998  -29.6485 C   0  0  0  0  0  0  0  0  0  0  0  0
  -11.6197   19.7431  -29.0961 F   0  0  0  0  0  0  0  0  0  0  0  0
  -10.5844   14.8598  -29.7935 N   0  0  0  0  0  0  0  0  0  0  0  0
  -10.5928   13.5377  -30.0326 C   0  0  0  0  0  0  0  0  0  0  0  0
  -11.6308   12.8196  -29.5690 N   0  0  0  0  0  0  0  0  0  0  0  0
  -12.6100   13.4358  -28.8930 C   0  0  0  0  0  0  0  0  0  0  0  0
  -13.6937   12.6942  -28.4081 C   0  0  0  0  0  0  0  0  0  0  0  0
  -14.7246   13.2743  -27.7101 C   0  0  0  0  0  0  0  0  0  0  0  0
  -15.7630   12.5635  -27.2439 O   0  0  0  0  0  0  0  0  0  0  0  0
  -16.0746   11.2457  -27.0805 C   0  0  0  0  0  0  0  0  0  0  0  0
  -17.4412   10.9020  -26.5800 C   0  0  0  0  0  0  0  0  0  0  0  0
  -17.5842   11.5101  -25.1754 C   0  0  0  0  0  0  0  0  0  0  0  0
  -18.6623   10.8714  -24.4668 N   0  0  0  0  0  0  0  0  0  0  0  0
  -18.5240   10.3977  -23.1378 C   0  0  0  0  0  0  0  0  0  0  0  0
  -18.4582    8.9299  -22.8628 C   0  0  0  0  0  0  0  0  0  0  0  0
  -18.4527   11.1712  -22.1580 O   0  0  0  0  0  0  0  0  0  0  0  0
  1  2  2  0
  2  3  1  0
  3  4  2  0
  3  5  1  0
  5  6  1  0
  6  7  2  0
  7  8  1  0
  8  9  2  0
  9 10  1  0
 10 11  1  0
 11 12  2  0
 12 13  1  0
 13 14  2  0
 14 15  1  0
 14 16  1  0
 16 17  2  0
 17 18  1  0
  9 19  1  0
 19 20  2  0
 20 21  1  0
 21 22  2  0
 22 23  1  0
 23 24  2  0
 24 25  1  0
 25 26  1  0
 26 27  1  0
 27 28  1  0
 28 29  1  0
 29 30  1  0
 30 31  1  0
 30 32  2  0
 24  6  1  0
 22  8  1  0
 17 11  1  0
M  END
$$$$
CHEMBL3132872_diffdock_1
     RDKit          3D

 24 26  0  0  0  0  0  0  0  0999 V2000
  -16.1976   19.2703  -24.3381 C   0  0  0  0  0  0  0  0  0  0  0  0
  -16.5036   18.4265  -25.2857 C   0  0  0  0  0  0  0  0  0  0  0  0
  -15.4728   17.6366  -25.9352 C   0  0  0  0  0  0  0  0  0  0  0  0
  -14.7619   18.1968  -26.7901 O   0  0  0  0  0  0  0  0  0  0  0  0
  -15.2511   16.2733  -25.6353 N   0  0  0  0  0  0  0  0  0  0  0  0
  -14.5853   15.3282  -26.4479 C   0  0  0  0  0  0  0  0  0  0  0  0
  -14.8367   13.9830  -26.4911 C   0  0  0  0  0  0  0  0  0  0  0  0
  -14.1165   13.1221  -27.3371 C   0  0  0  0  0  0  0  0  0  0  0  0
  -13.1217   13.5827  -28.1663 C   0  0  0  0  0  0  0  0  0  0  0  0
  -12.4328   12.7467  -28.9781 N   0  0  0  0  0  0  0  0  0  0  0  0
  -11.4619   13.1975  -29.7872 C   0  0  0  0  0  0  0  0  0  0  0  0
  -11.2009   14.5092  -29.7599 N   0  0  0  0  0  0  0  0  0  0  0  0
  -11.8566   15.3971  -28.9682 C   0  0  0  0  0  0  0  0  0  0  0  0
  -11.5192   16.7608  -29.0011 N   0  0  0  0  0  0  0  0  0  0  0  0
  -10.2710   17.1334  -29.6220 C   0  0  0  0  0  0  0  0  0  0  0  0
   -9.3777   16.2089  -30.1080 C   0  0  0  0  0  0  0  0  0  0  0  0
   -8.2053   16.6436  -30.6881 C   0  0  0  0  0  0  0  0  0  0  0  0
   -7.9347   18.0135  -30.7777 C   0  0  0  0  0  0  0  0  0  0  0  0
   -6.3218   18.6434  -31.5747 Br  0  0  0  0  0  0  0  0  0  0  0  0
   -8.8342   18.9145  -30.2894 C   0  0  0  0  0  0  0  0  0  0  0  0
  -10.0058   18.4815  -29.7096 C   0  0  0  0  0  0  0  0  0  0  0  0
  -10.8579   19.4254  -29.2439 F   0  0  0  0  0  0  0  0  0  0  0  0
  -12.8568   14.9354  -28.1342 C   0  0  0  0  0  0  0  0  0  0  0  0
  -13.5638   15.7677  -27.3063 C   0  0  0  0  0  0  0  0  0  0  0  0
  1  2  2  0
  2  3  1  0
  3  4  2  0
  3  5  1  0
  5  6  1  0
  6  7  2  0
  7  8  1  0
  8  9  2  0
  9 10  1  0
 10 11  2  0
 11 12  1  0
 12 13  2  0
 13 14  1  0
 14 15  1  0
 15 16  2  0
 16 17  1  0
 17 18  2  0
 18 19  1  0
 18 20  1  0
 20 21  2  0
 21 22  1  0
 13 23  1  0
 23 24  2  0
 24  6  1  0
 23  9  1  0
 21 15  1  0
M  END
$$$$
CHEMBL3132872_diffdock_2
     RDKit          3D

 24 26  0  0  0  0  0  0  0  0999 V2000
  -14.7568   18.1690  -22.3140 C   0  0  0  0  0  0  0  0  0  0  0  0
  -15.3108   17.2834  -23.0965 C   0  0  0  0  0  0  0  0  0  0  0  0
  -14.5793   16.7286  -24.2215 C   0  0  0  0  0  0  0  0  0  0  0  0
  -13.4362   17.1675  -24.4464 O   0  0  0  0  0  0  0  0  0  0  0  0
  -15.1120   15.7219  -25.0585 N   0  0  0  0  0  0  0  0  0  0  0  0
  -14.3886   14.8886  -25.9412 C   0  0  0  0  0  0  0  0  0  0  0  0
  -14.5249   13.5316  -26.0624 C   0  0  0  0  0  0  0  0  0  0  0  0
  -13.7554   12.7888  -26.9743 C   0  0  0  0  0  0  0  0  0  0  0  0
  -12.8250   13.3830  -27.7933 C   0  0  0  0  0  0  0  0  0  0  0  0
  -12.0879   12.6602  -28.6689 N   0  0  0  0  0  0  0  0  0  0  0  0
  -11.1800   13.2413  -29.4680 C   0  0  0  0  0  0  0  0  0  0  0  0
  -11.0316   14.5667  -29.3648 N   0  0  0  0  0  0  0  0  0  0  0  0
  -11.7406   15.3453  -28.5067 C   0  0  0  0  0  0  0  0  0  0  0  0
  -11.5221   16.7326  -28.4621 N   0  0  0  0  0  0  0  0  0  0  0  0
  -10.5824   17.2993  -29.3993 C   0  0  0  0  0  0  0  0  0  0  0  0
   -9.7634   16.5280  -30.1888 C   0  0  0  0  0  0  0  0  0  0  0  0
   -8.8914   17.1441  -31.0605 C   0  0  0  0  0  0  0  0  0  0  0  0
   -8.8462   18.5406  -31.1351 C   0  0  0  0  0  0  0  0  0  0  0  0
   -7.6502   19.4195  -32.3313 Br  0  0  0  0  0  0  0  0  0  0  0  0
   -9.6672   19.2877  -30.3432 C   0  0  0  0  0  0  0  0  0  0  0  0
  -10.5389   18.6735  -29.4719 C   0  0  0  0  0  0  0  0  0  0  0  0
  -11.3278   19.4705  -28.7127 F   0  0  0  0  0  0  0  0  0  0  0  0
  -12.6761   14.7493  -27.6829 C   0  0  0  0  0  0  0  0  0  0  0  0
  -13.4305   15.4659  -26.7912 C   0  0  0  0  0  0  0  0  0  0  0  0
  1  2  2  0
  2  3  1  0
  3  4  2  0
  3  5  1  0
  5  6  1  0
  6  7  2  0
  7  8  1  0
  8  9  2  0
  9 10  1  0
 10 11  2  0
 11 12  1  0
 12 13  2  0
 13 14  1  0
 14 15  1  0
 15 16  2  0
 16 17  1  0
 17 18  2  0
 18 19  1  0
 18 20  1  0
 20 21  2  0
 21 22  1  0
 13 23  1  0
 23 24  2  0
 24  6  1  0
 23  9  1  0
 21 15  1  0
M  END
$$$$
CHEMBL3132872_diffdock_3
     RDKit          3D

 24 26  0  0  0  0  0  0  0  0999 V2000
  -17.3756   15.0863  -23.1280 C   0  0  0  0  0  0  0  0  0  0  0  0
  -16.7644   15.5893  -24.1659 C   0  0  0  0  0  0  0  0  0  0  0  0
  -15.9988   14.7379  -25.0588 C   0  0  0  0  0  0  0  0  0  0  0  0
  -16.2579   13.5202  -25.0670 O   0  0  0  0  0  0  0  0  0  0  0  0
  -14.9840   15.2360  -25.9072 N   0  0  0  0  0  0  0  0  0  0  0  0
  -14.0815   14.4724  -26.6813 C   0  0  0  0  0  0  0  0  0  0  0  0
  -14.0761   13.1085  -26.8013 C   0  0  0  0  0  0  0  0  0  0  0  0
  -13.1326   12.4393  -27.5999 C   0  0  0  0  0  0  0  0  0  0  0  0
  -12.1650   13.1165  -28.3032 C   0  0  0  0  0  0  0  0  0  0  0  0
  -11.2600   12.4642  -29.0700 N   0  0  0  0  0  0  0  0  0  0  0  0
  -10.3158   13.1262  -29.7562 C   0  0  0  0  0  0  0  0  0  0  0  0
  -10.3041   14.4598  -29.6522 N   0  0  0  0  0  0  0  0  0  0  0  0
  -11.1843   15.1702  -28.8999 C   0  0  0  0  0  0  0  0  0  0  0  0
  -11.1017   16.5719  -28.8459 N   0  0  0  0  0  0  0  0  0  0  0  0
  -10.0298   17.2140  -29.5679 C   0  0  0  0  0  0  0  0  0  0  0  0
   -8.9963   16.5133  -30.1421 C   0  0  0  0  0  0  0  0  0  0  0  0
   -8.0086   17.1990  -30.8161 C   0  0  0  0  0  0  0  0  0  0  0  0
   -8.0646   18.5940  -30.9103 C   0  0  0  0  0  0  0  0  0  0  0  0
   -6.7128   19.5683  -31.8360 Br  0  0  0  0  0  0  0  0  0  0  0  0
   -9.0986   19.2704  -30.3336 C   0  0  0  0  0  0  0  0  0  0  0  0
  -10.0860   18.5866  -29.6600 C   0  0  0  0  0  0  0  0  0  0  0  0
  -11.0857   19.3154  -29.1093 F   0  0  0  0  0  0  0  0  0  0  0  0
  -12.1575   14.4908  -28.1924 C   0  0  0  0  0  0  0  0  0  0  0  0
  -13.0810   15.1352  -27.4117 C   0  0  0  0  0  0  0  0  0  0  0  0
  1  2  2  0
  2  3  1  0
  3  4  2  0
  3  5  1  0
  5  6  1  0
  6  7  2  0
  7  8  1  0
  8  9  2  0
  9 10  1  0
 10 11  2  0
 11 12  1  0
 12 13  2  0
 13 14  1  0
 14 15  1  0
 15 16  2  0
 16 17  1  0
 17 18  2  0
 18 19  1  0
 18 20  1  0
 20 21  2  0
 21 22  1  0
 13 23  1  0
 23 24  2  0
 24  6  1  0
 23  9  1  0
 21 15  1  0
M  END
$$$$
CHEMBL3132872_diffdock_4
     RDKit          3D

 24 26  0  0  0  0  0  0  0  0999 V2000
  -14.6264   17.8484  -22.8093 C   0  0  0  0  0  0  0  0  0  0  0  0
  -15.0379   16.8446  -23.5351 C   0  0  0  0  0  0  0  0  0  0  0  0
  -14.3683   16.5062  -24.7782 C   0  0  0  0  0  0  0  0  0  0  0  0
  -13.4166   17.2223  -25.1409 O   0  0  0  0  0  0  0  0  0  0  0  0
  -14.7535   15.4077  -25.5799 N   0  0  0  0  0  0  0  0  0  0  0  0
  -13.9276   14.6784  -26.4647 C   0  0  0  0  0  0  0  0  0  0  0  0
  -13.9619   13.3249  -26.6685 C   0  0  0  0  0  0  0  0  0  0  0  0
  -13.0948   12.6905  -27.5749 C   0  0  0  0  0  0  0  0  0  0  0  0
  -12.1663   13.3931  -28.3053 C   0  0  0  0  0  0  0  0  0  0  0  0
  -11.3349   12.7744  -29.1762 N   0  0  0  0  0  0  0  0  0  0  0  0
  -10.4288   13.4612  -29.8888 C   0  0  0  0  0  0  0  0  0  0  0  0
  -10.3794   14.7852  -29.7040 N   0  0  0  0  0  0  0  0  0  0  0  0
  -11.1858   15.4624  -28.8459 C   0  0  0  0  0  0  0  0  0  0  0  0
  -11.0677   16.8562  -28.7120 N   0  0  0  0  0  0  0  0  0  0  0  0
  -10.2212   17.5558  -29.6483 C   0  0  0  0  0  0  0  0  0  0  0  0
   -9.4547   16.9062  -30.5860 C   0  0  0  0  0  0  0  0  0  0  0  0
   -8.6711   17.6451  -31.4462 C   0  0  0  0  0  0  0  0  0  0  0  0
   -8.6616   19.0417  -31.3594 C   0  0  0  0  0  0  0  0  0  0  0  0
   -7.5878   20.0890  -32.5357 Br  0  0  0  0  0  0  0  0  0  0  0  0
   -9.4294   19.6669  -30.4219 C   0  0  0  0  0  0  0  0  0  0  0  0
  -10.2127   18.9298  -29.5619 C   0  0  0  0  0  0  0  0  0  0  0  0
  -10.9523   19.6093  -28.6535 F   0  0  0  0  0  0  0  0  0  0  0  0
  -12.1196   14.7574  -28.1110 C   0  0  0  0  0  0  0  0  0  0  0  0
  -12.9686   15.3678  -27.2254 C   0  0  0  0  0  0  0  0  0  0  0  0
  1  2  2  0
  2  3  1  0
  3  4  2  0
  3  5  1  0
  5  6  1  0
  6  7  2  0
  7  8  1  0
  8  9  2  0
  9 10  1  0
 10 11  2  0
 11 12  1  0
 12 13  2  0
 13 14  1  0
 14 15  1  0
 15 16  2  0
 16 17  1  0
 17 18  2  0
 18 19  1  0
 18 20  1  0
 20 21  2  0
 21 22  1  0
 13 23  1  0
 23 24  2  0
 24  6  1  0
 23  9  1  0
 21 15  1  0
M  END
$$$$
CHEMBL3132872_diffdock_5
     RDKit          3D

 24 26  0  0  0  0  0  0  0  0999 V2000
  -16.4473   18.7747  -24.9301 C   0  0  0  0  0  0  0  0  0  0  0  0
  -16.2348   17.4893  -24.8511 C   0  0  0  0  0  0  0  0  0  0  0  0
  -15.3300   16.8302  -25.7759 C   0  0  0  0  0  0  0  0  0  0  0  0
  -14.9798   17.4558  -26.7937 O   0  0  0  0  0  0  0  0  0  0  0  0
  -14.8396   15.5216  -25.5641 N   0  0  0  0  0  0  0  0  0  0  0  0
  -14.0134   14.7788  -26.4373 C   0  0  0  0  0  0  0  0  0  0  0  0
  -14.0108   13.4172  -26.5811 C   0  0  0  0  0  0  0  0  0  0  0  0
  -13.1469   12.7694  -27.4810 C   0  0  0  0  0  0  0  0  0  0  0  0
  -12.2584   13.4664  -28.2648 C   0  0  0  0  0  0  0  0  0  0  0  0
  -11.4297   12.8347  -29.1289 N   0  0  0  0  0  0  0  0  0  0  0  0
  -10.5628   13.5160  -29.8936 C   0  0  0  0  0  0  0  0  0  0  0  0
  -10.5497   14.8477  -29.7679 N   0  0  0  0  0  0  0  0  0  0  0  0
  -11.3555   15.5379  -28.9197 C   0  0  0  0  0  0  0  0  0  0  0  0
  -11.2773   16.9392  -28.8495 N   0  0  0  0  0  0  0  0  0  0  0  0
  -10.3875   17.6130  -29.7643 C   0  0  0  0  0  0  0  0  0  0  0  0
   -9.7597   16.9666  -30.8021 C   0  0  0  0  0  0  0  0  0  0  0  0
   -8.9234   17.6799  -31.6338 C   0  0  0  0  0  0  0  0  0  0  0  0
   -8.7209   19.0474  -31.4175 C   0  0  0  0  0  0  0  0  0  0  0  0
   -7.5701   20.0587  -32.5518 Br  0  0  0  0  0  0  0  0  0  0  0  0
   -9.3533   19.6699  -30.3822 C   0  0  0  0  0  0  0  0  0  0  0  0
  -10.1890   18.9585  -29.5505 C   0  0  0  0  0  0  0  0  0  0  0  0
  -10.7875   19.6338  -28.5407 F   0  0  0  0  0  0  0  0  0  0  0  0
  -12.2491   14.8386  -28.1312 C   0  0  0  0  0  0  0  0  0  0  0  0
  -13.0948   15.4621  -27.2515 C   0  0  0  0  0  0  0  0  0  0  0  0
  1  2  2  0
  2  3  1  0
  3  4  2  0
  3  5  1  0
  5  6  1  0
  6  7  2  0
  7  8  1  0
  8  9  2  0
  9 10  1  0
 10 11  2  0
 11 12  1  0
 12 13  2  0
 13 14  1  0
 14 15  1  0
 15 16  2  0
 16 17  1  0
 17 18  2  0
 18 19  1  0
 18 20  1  0
 20 21  2  0
 21 22  1  0
 13 23  1  0
 23 24  2  0
 24  6  1  0
 23  9  1  0
 21 15  1  0
M  END
$$$$
CHEMBL3132872_diffdock_6
     RDKit          3D

 24 26  0  0  0  0  0  0  0  0999 V2000
  -16.3258   18.7852  -24.1906 C   0  0  0  0  0  0  0  0  0  0  0  0
  -16.3968   17.5121  -24.4695 C   0  0  0  0  0  0  0  0  0  0  0  0
  -15.4028   16.8842  -25.3216 C   0  0  0  0  0  0  0  0  0  0  0  0
  -14.8541   17.5861  -26.1913 O   0  0  0  0  0  0  0  0  0  0  0  0
  -15.0412   15.5233  -25.2002 N   0  0  0  0  0  0  0  0  0  0  0  0
  -14.2522   14.7761  -26.1037 C   0  0  0  0  0  0  0  0  0  0  0  0
  -14.3487   13.4303  -26.3358 C   0  0  0  0  0  0  0  0  0  0  0  0
  -13.5143   12.7766  -27.2590 C   0  0  0  0  0  0  0  0  0  0  0  0
  -12.5571   13.4517  -27.9783 C   0  0  0  0  0  0  0  0  0  0  0  0
  -11.7576   12.8144  -28.8655 N   0  0  0  0  0  0  0  0  0  0  0  0
  -10.8235   13.4744  -29.5673 C   0  0  0  0  0  0  0  0  0  0  0  0
  -10.7133   14.7905  -29.3549 N   0  0  0  0  0  0  0  0  0  0  0  0
  -11.4853   15.4853  -28.4794 C   0  0  0  0  0  0  0  0  0  0  0  0
  -11.3036   16.8691  -28.3167 N   0  0  0  0  0  0  0  0  0  0  0  0
  -10.2094   17.4943  -29.0198 C   0  0  0  0  0  0  0  0  0  0  0  0
   -9.5104   16.8617  -30.0198 C   0  0  0  0  0  0  0  0  0  0  0  0
   -8.4768   17.5258  -30.6447 C   0  0  0  0  0  0  0  0  0  0  0  0
   -8.1486   18.8303  -30.2594 C   0  0  0  0  0  0  0  0  0  0  0  0
   -6.7243   19.7728  -31.1059 Br  0  0  0  0  0  0  0  0  0  0  0  0
   -8.8546   19.4402  -29.2649 C   0  0  0  0  0  0  0  0  0  0  0  0
   -9.8874   18.7779  -28.6398 C   0  0  0  0  0  0  0  0  0  0  0  0
  -10.5498   19.4376  -27.6600 F   0  0  0  0  0  0  0  0  0  0  0  0
  -12.4478   14.8079  -27.7556 C   0  0  0  0  0  0  0  0  0  0  0  0
  -13.2653   15.4373  -26.8537 C   0  0  0  0  0  0  0  0  0  0  0  0
  1  2  2  0
  2  3  1  0
  3  4  2  0
  3  5  1  0
  5  6  1  0
  6  7  2  0
  7  8  1  0
  8  9  2  0
  9 10  1  0
 10 11  2  0
 11 12  1  0
 12 13  2  0
 13 14  1  0
 14 15  1  0
 15 16  2  0
 16 17  1  0
 17 18  2  0
 18 19  1  0
 18 20  1  0
 20 21  2  0
 21 22  1  0
 13 23  1  0
 23 24  2  0
 24  6  1  0
 23  9  1  0
 21 15  1  0
M  END
$$$$
CHEMBL3132872_diffdock_7
     RDKit          3D

 24 26  0  0  0  0  0  0  0  0999 V2000
  -15.6583   18.4005  -23.4489 C   0  0  0  0  0  0  0  0  0  0  0  0
  -15.9703   17.7845  -24.5565 C   0  0  0  0  0  0  0  0  0  0  0  0
  -14.9516   17.1088  -25.3402 C   0  0  0  0  0  0  0  0  0  0  0  0
  -14.1951   17.8082  -26.0390 O   0  0  0  0  0  0  0  0  0  0  0  0
  -14.7909   15.7046  -25.3375 N   0  0  0  0  0  0  0  0  0  0  0  0
  -13.9777   14.9468  -26.2100 C   0  0  0  0  0  0  0  0  0  0  0  0
  -14.1076   13.6100  -26.4758 C   0  0  0  0  0  0  0  0  0  0  0  0
  -13.2446   12.9444  -27.3634 C   0  0  0  0  0  0  0  0  0  0  0  0
  -12.2244   13.5980  -28.0124 C   0  0  0  0  0  0  0  0  0  0  0  0
  -11.3976   12.9493  -28.8658 N   0  0  0  0  0  0  0  0  0  0  0  0
  -10.4020   13.5884  -29.4988 C   0  0  0  0  0  0  0  0  0  0  0  0
  -10.2582   14.8954  -29.2526 N   0  0  0  0  0  0  0  0  0  0  0  0
  -11.0547   15.6007  -28.4080 C   0  0  0  0  0  0  0  0  0  0  0  0
  -10.8343   16.9737  -28.2059 N   0  0  0  0  0  0  0  0  0  0  0  0
   -9.7405   17.5940  -28.9140 C   0  0  0  0  0  0  0  0  0  0  0  0
   -8.6646   16.8832  -29.3892 C   0  0  0  0  0  0  0  0  0  0  0  0
   -7.6583   17.5480  -30.0564 C   0  0  0  0  0  0  0  0  0  0  0  0
   -7.7385   18.9324  -30.2440 C   0  0  0  0  0  0  0  0  0  0  0  0
   -6.3618   19.8779  -31.1628 Br  0  0  0  0  0  0  0  0  0  0  0  0
   -8.8146   19.6191  -29.7647 C   0  0  0  0  0  0  0  0  0  0  0  0
   -9.8206   18.9561  -29.0979 C   0  0  0  0  0  0  0  0  0  0  0  0
  -10.8622   19.6943  -28.6462 F   0  0  0  0  0  0  0  0  0  0  0  0
  -12.0807   14.9449  -27.7550 C   0  0  0  0  0  0  0  0  0  0  0  0
  -12.9264   15.5861  -26.8882 C   0  0  0  0  0  0  0  0  0  0  0  0
  1  2  2  0
  2  3  1  0
  3  4  2  0
  3  5  1  0
  5  6  1  0
  6  7  2  0
  7  8  1  0
  8  9  2  0
  9 10  1  0
 10 11  2  0
 11 12  1  0
 12 13  2  0
 13 14  1  0
 14 15  1  0
 15 16  2  0
 16 17  1  0
 17 18  2  0
 18 19  1  0
 18 20  1  0
 20 21  2  0
 21 22  1  0
 13 23  1  0
 23 24  2  0
 24  6  1  0
 23  9  1  0
 21 15  1  0
M  END
$$$$
CHEMBL3132872_diffdock_8
     RDKit          3D

 24 26  0  0  0  0  0  0  0  0999 V2000
  -15.8041   18.8840  -23.9490 C   0  0  0  0  0  0  0  0  0  0  0  0
  -16.1271   17.9288  -24.7778 C   0  0  0  0  0  0  0  0  0  0  0  0
  -15.1113   17.2666  -25.5765 C   0  0  0  0  0  0  0  0  0  0  0  0
  -14.3622   17.9773  -26.2720 O   0  0  0  0  0  0  0  0  0  0  0  0
  -14.9454   15.8630  -25.5919 N   0  0  0  0  0  0  0  0  0  0  0  0
  -14.1539   15.1169  -26.4941 C   0  0  0  0  0  0  0  0  0  0  0  0
  -14.3122   13.7918  -26.7997 C   0  0  0  0  0  0  0  0  0  0  0  0
  -13.4693   13.1372  -27.7145 C   0  0  0  0  0  0  0  0  0  0  0  0
  -12.4414   13.7907  -28.3515 C   0  0  0  0  0  0  0  0  0  0  0  0
  -11.6341   13.1528  -29.2312 N   0  0  0  0  0  0  0  0  0  0  0  0
  -10.6309   13.7916  -29.8525 C   0  0  0  0  0  0  0  0  0  0  0  0
  -10.4596   15.0873  -29.5674 N   0  0  0  0  0  0  0  0  0  0  0  0
  -11.2356   15.7815  -28.6950 C   0  0  0  0  0  0  0  0  0  0  0  0
  -10.9866   17.1430  -28.4526 N   0  0  0  0  0  0  0  0  0  0  0  0
   -9.8625   17.7539  -29.1201 C   0  0  0  0  0  0  0  0  0  0  0  0
   -8.7798   17.0327  -29.5633 C   0  0  0  0  0  0  0  0  0  0  0  0
   -7.7438   17.6889  -30.1927 C   0  0  0  0  0  0  0  0  0  0  0  0
   -7.8012   19.0751  -30.3747 C   0  0  0  0  0  0  0  0  0  0  0  0
   -6.3833   20.0088  -31.2416 Br  0  0  0  0  0  0  0  0  0  0  0  0
   -8.8844   19.7722  -29.9276 C   0  0  0  0  0  0  0  0  0  0  0  0
   -9.9201   19.1179  -29.2987 C   0  0  0  0  0  0  0  0  0  0  0  0
  -10.9673   19.8662  -28.8777 F   0  0  0  0  0  0  0  0  0  0  0  0
  -12.2692   15.1259  -28.0540 C   0  0  0  0  0  0  0  0  0  0  0  0
  -13.0955   15.7563  -27.1609 C   0  0  0  0  0  0  0  0  0  0  0  0
  1  2  2  0
  2  3  1  0
  3  4  2  0
  3  5  1  0
  5  6  1  0
  6  7  2  0
  7  8  1  0
  8  9  2  0
  9 10  1  0
 10 11  2  0
 11 12  1  0
 12 13  2  0
 13 14  1  0
 14 15  1  0
 15 16  2  0
 16 17  1  0
 17 18  2  0
 18 19  1  0
 18 20  1  0
 20 21  2  0
 21 22  1  0
 13 23  1  0
 23 24  2  0
 24  6  1  0
 23  9  1  0
 21 15  1  0
M  END
$$$$
CHEMBL3132872_diffdock_9
     RDKit          3D

 24 26  0  0  0  0  0  0  0  0999 V2000
  -14.1801   18.3655  -22.2723 C   0  0  0  0  0  0  0  0  0  0  0  0
  -14.5149   17.3037  -22.9536 C   0  0  0  0  0  0  0  0  0  0  0  0
  -13.9300   17.0457  -24.2573 C   0  0  0  0  0  0  0  0  0  0  0  0
  -13.0341   17.8128  -24.6559 O   0  0  0  0  0  0  0  0  0  0  0  0
  -14.3364   15.9694  -25.0784 N   0  0  0  0  0  0  0  0  0  0  0  0
  -13.5246   15.2392  -25.9753 C   0  0  0  0  0  0  0  0  0  0  0  0
  -13.5227   13.8796  -26.1368 C   0  0  0  0  0  0  0  0  0  0  0  0
  -12.6736   13.2449  -27.0598 C   0  0  0  0  0  0  0  0  0  0  0  0
  -11.7999   13.9533  -27.8499 C   0  0  0  0  0  0  0  0  0  0  0  0
  -10.9856   13.3341  -28.7365 N   0  0  0  0  0  0  0  0  0  0  0  0
  -10.1331   14.0266  -29.5072 C   0  0  0  0  0  0  0  0  0  0  0  0
  -10.1196   15.3566  -29.3646 N   0  0  0  0  0  0  0  0  0  0  0  0
  -10.9115   16.0346  -28.4936 C   0  0  0  0  0  0  0  0  0  0  0  0
  -10.8339   17.4349  -28.4068 N   0  0  0  0  0  0  0  0  0  0  0  0
   -9.9321   18.1187  -29.3022 C   0  0  0  0  0  0  0  0  0  0  0  0
   -8.8665   18.8640  -28.8574 C   0  0  0  0  0  0  0  0  0  0  0  0
   -8.0496   19.4880  -29.7757 C   0  0  0  0  0  0  0  0  0  0  0  0
   -8.3090   19.3592  -31.1447 C   0  0  0  0  0  0  0  0  0  0  0  0
   -7.1962   20.2109  -32.4369 Br  0  0  0  0  0  0  0  0  0  0  0  0
   -9.3715   18.6152  -31.5652 C   0  0  0  0  0  0  0  0  0  0  0  0
  -10.1884   17.9913  -30.6489 C   0  0  0  0  0  0  0  0  0  0  0  0
  -11.2268   17.2670  -31.1296 F   0  0  0  0  0  0  0  0  0  0  0  0
  -11.7902   15.3237  -27.6988 C   0  0  0  0  0  0  0  0  0  0  0  0
  -12.6213   15.9345  -26.7965 C   0  0  0  0  0  0  0  0  0  0  0  0
  1  2  2  0
  2  3  1  0
  3  4  2  0
  3  5  1  0
  5  6  1  0
  6  7  2  0
  7  8  1  0
  8  9  2  0
  9 10  1  0
 10 11  2  0
 11 12  1  0
 12 13  2  0
 13 14  1  0
 14 15  1  0
 15 16  2  0
 16 17  1  0
 17 18  2  0
 18 19  1  0
 18 20  1  0
 20 21  2  0
 21 22  1  0
 13 23  1  0
 23 24  2  0
 24  6  1  0
 23  9  1  0
 21 15  1  0
M  END
$$$$
CHEMBL3132872_diffdock_10
     RDKit          3D

 24 26  0  0  0  0  0  0  0  0999 V2000
  -21.4985  -41.4863   39.1090 C   0  0  0  0  0  0  0  0  0  0  0  0
  -21.9651  -41.4369   40.3270 C   0  0  0  0  0  0  0  0  0  0  0  0
  -23.3055  -41.9084   40.6261 C   0  0  0  0  0  0  0  0  0  0  0  0
  -24.2605  -41.1545   40.3621 O   0  0  0  0  0  0  0  0  0  0  0  0
  -23.5606  -43.1752   41.1984 N   0  0  0  0  0  0  0  0  0  0  0  0
  -24.6696  -43.5317   41.9984 C   0  0  0  0  0  0  0  0  0  0  0  0
  -25.9862  -43.4582   41.6300 C   0  0  0  0  0  0  0  0  0  0  0  0
  -27.0212  -43.8383   42.5018 C   0  0  0  0  0  0  0  0  0  0  0  0
  -26.7688  -44.3039   43.7701 C   0  0  0  0  0  0  0  0  0  0  0  0
  -27.7716  -44.6678   44.6035 N   0  0  0  0  0  0  0  0  0  0  0  0
  -27.5240  -45.1223   45.8415 C   0  0  0  0  0  0  0  0  0  0  0  0
  -26.2436  -45.2017   46.2207 N   0  0  0  0  0  0  0  0  0  0  0  0
  -25.1951  -44.8519   45.4311 C   0  0  0  0  0  0  0  0  0  0  0  0
  -23.8785  -44.9664   45.9084 N   0  0  0  0  0  0  0  0  0  0  0  0
  -23.6843  -45.5044   47.2333 C   0  0  0  0  0  0  0  0  0  0  0  0
  -24.7240  -45.9476   48.0151 C   0  0  0  0  0  0  0  0  0  0  0  0
  -24.4576  -46.4487   49.2713 C   0  0  0  0  0  0  0  0  0  0  0  0
  -23.1397  -46.5022   49.7385 C   0  0  0  0  0  0  0  0  0  0  0  0
  -22.7419  -47.1901   51.4712 Br  0  0  0  0  0  0  0  0  0  0  0  0
  -22.1224  -46.0574   48.9470 C   0  0  0  0  0  0  0  0  0  0  0  0
  -22.3872  -45.5566   47.6919 C   0  0  0  0  0  0  0  0  0  0  0  0
  -21.3339  -45.1308   46.9547 F   0  0  0  0  0  0  0  0  0  0  0  0
  -25.4475  -44.3837   44.1558 C   0  0  0  0  0  0  0  0  0  0  0  0
  -24.4445  -44.0111   43.2996 C   0  0  0  0  0  0  0  0  0  0  0  0
  1  2  2  0
  2  3  1  0
  3  4  2  0
  3  5  1  0
  5  6  1  0
  6  7  2  0
  7  8  1  0
  8  9  2  0
  9 10  1  0
 10 11  2  0
 11 12  1  0
 12 13  2  0
 13 14  1  0
 14 15  1  0
 15 16  2  0
 16 17  1  0
 17 18  2  0
 18 19  1  0
 18 20  1  0
 20 21  2  0
 21 22  1  0
 13 23  1  0
 23 24  2  0
 24  6  1  0
 23  9  1  0
 21 15  1  0
M  END
$$$$
CHEMBL3763790_diffdock_1
     RDKit          3D

 42 46  0  0  0  0  0  0  0  0999 V2000
  -16.0593   22.9386  -20.0685 C   0  0  0  0  0  0  0  0  0  0  0  0
  -17.0129   22.0225  -20.5841 O   0  0  0  0  0  0  0  0  0  0  0  0
  -16.7640   21.2237  -21.6856 C   0  0  0  0  0  0  0  0  0  0  0  0
  -16.7463   21.6813  -22.9847 C   0  0  0  0  0  0  0  0  0  0  0  0
  -16.4833   20.8056  -24.0321 C   0  0  0  0  0  0  0  0  0  0  0  0
  -16.2339   19.4687  -23.8308 C   0  0  0  0  0  0  0  0  0  0  0  0
  -15.9221   18.5307  -24.8894 C   0  0  0  0  0  0  0  0  0  0  0  0
  -14.9602   17.6436  -24.8033 C   0  0  0  0  0  0  0  0  0  0  0  0
  -14.6333   16.8020  -25.9503 C   0  0  0  0  0  0  0  0  0  0  0  0
  -14.3441   17.3305  -27.0322 O   0  0  0  0  0  0  0  0  0  0  0  0
  -14.6429   15.3844  -25.8567 N   0  0  0  0  0  0  0  0  0  0  0  0
  -13.8841   14.6144  -26.7755 C   0  0  0  0  0  0  0  0  0  0  0  0
  -12.9996   15.2923  -27.6275 C   0  0  0  0  0  0  0  0  0  0  0  0
  -12.2394   14.6022  -28.5401 C   0  0  0  0  0  0  0  0  0  0  0  0
  -11.3384   15.2376  -29.4048 C   0  0  0  0  0  0  0  0  0  0  0  0
  -11.1735   16.6312  -29.3470 N   0  0  0  0  0  0  0  0  0  0  0  0
  -10.1892   17.2910  -30.1121 C   0  0  0  0  0  0  0  0  0  0  0  0
   -9.8767   18.6365  -29.8390 C   0  0  0  0  0  0  0  0  0  0  0  0
   -8.9502   19.3476  -30.5416 C   0  0  0  0  0  0  0  0  0  0  0  0
   -8.2875   18.7261  -31.5648 C   0  0  0  0  0  0  0  0  0  0  0  0
   -7.3677   19.4153  -32.2646 F   0  0  0  0  0  0  0  0  0  0  0  0
   -8.5417   17.4026  -31.8936 C   0  0  0  0  0  0  0  0  0  0  0  0
   -7.6847   16.6347  -33.1989 Cl  0  0  0  0  0  0  0  0  0  0  0  0
   -9.4960   16.7239  -31.1460 C   0  0  0  0  0  0  0  0  0  0  0  0
  -10.6439   14.4574  -30.2522 N   0  0  0  0  0  0  0  0  0  0  0  0
  -10.7664   13.1373  -30.3106 C   0  0  0  0  0  0  0  0  0  0  0  0
  -11.6119   12.5078  -29.5039 N   0  0  0  0  0  0  0  0  0  0  0  0
  -12.3442   13.2231  -28.6247 C   0  0  0  0  0  0  0  0  0  0  0  0
  -13.2318   12.5909  -27.7639 C   0  0  0  0  0  0  0  0  0  0  0  0
  -14.0020   13.2368  -26.8461 C   0  0  0  0  0  0  0  0  0  0  0  0
  -14.8724   12.5820  -26.0089 O   0  0  0  0  0  0  0  0  0  0  0  0
  -16.1697   12.1654  -26.2598 C   0  0  1  0  0  0  0  0  0  0  0  0
  -16.1938   10.9981  -27.2578 C   0  0  0  0  0  0  0  0  0  0  0  0
  -17.2374   10.0980  -26.6155 C   0  0  0  0  0  0  0  0  0  0  0  0
  -16.7772   10.1301  -25.2793 O   0  0  0  0  0  0  0  0  0  0  0  0
  -16.6881   11.4932  -24.9970 C   0  0  0  0  0  0  0  0  0  0  0  0
  -16.2592   19.0265  -22.5006 C   0  0  0  0  0  0  0  0  0  0  0  0
  -16.0163   17.6978  -22.2625 O   0  0  0  0  0  0  0  0  0  0  0  0
  -16.9720   16.7174  -22.0041 C   0  0  0  0  0  0  0  0  0  0  0  0
  -16.5149   19.8673  -21.4509 C   0  0  0  0  0  0  0  0  0  0  0  0
  -16.5285   19.3840  -20.1524 O   0  0  0  0  0  0  0  0  0  0  0  0
  -15.2898   19.4373  -19.4386 C   0  0  0  0  0  0  0  0  0  0  0  0
  1  2  1  0
  2  3  1  0
  3  4  2  0
  4  5  1  0
  5  6  2  0
  6  7  1  0
  7  8  2  0
  8  9  1  0
  9 10  2  0
  9 11  1  0
 11 12  1  0
 12 13  2  0
 13 14  1  0
 14 15  2  0
 15 16  1  0
 16 17  1  0
 17 18  2  0
 18 19  1  0
 19 20  2  0
 20 21  1  0
 20 22  1  0
 22 23  1  0
 22 24  2  0
 15 25  1  0
 25 26  2  0
 26 27  1  0
 27 28  2  0
 28 29  1  0
 29 30  2  0
 30 31  1  0
 32 31  1  1
 32 33  1  0
 33 34  1  0
 34 35  1  0
 35 36  1  0
  6 37  1  0
 37 38  1  0
 38 39  1  0
 37 40  2  0
 40 41  1  0
 41 42  1  0
 40  3  1  0
 30 12  1  0
 36 32  1  0
 28 14  1  0
 24 17  1  0
M  END
$$$$
CHEMBL3763790_diffdock_2
     RDKit          3D

 42 46  0  0  0  0  0  0  0  0999 V2000
  -17.2036   24.1851  -23.9466 C   0  0  0  0  0  0  0  0  0  0  0  0
  -16.5241   23.1794  -23.2109 O   0  0  0  0  0  0  0  0  0  0  0  0
  -16.2105   21.9432  -23.7463 C   0  0  0  0  0  0  0  0  0  0  0  0
  -15.9546   21.7210  -25.0815 C   0  0  0  0  0  0  0  0  0  0  0  0
  -15.6436   20.4430  -25.5317 C   0  0  0  0  0  0  0  0  0  0  0  0
  -15.5773   19.3595  -24.6879 C   0  0  0  0  0  0  0  0  0  0  0  0
  -15.2237   18.0199  -25.1099 C   0  0  0  0  0  0  0  0  0  0  0  0
  -14.9074   17.0624  -24.2716 C   0  0  0  0  0  0  0  0  0  0  0  0
  -14.3736   15.7981  -24.7692 C   0  0  0  0  0  0  0  0  0  0  0  0
  -13.3352   15.3378  -24.2760 O   0  0  0  0  0  0  0  0  0  0  0  0
  -15.0170   15.0812  -25.8134 N   0  0  0  0  0  0  0  0  0  0  0  0
  -14.2400   14.3297  -26.7323 C   0  0  0  0  0  0  0  0  0  0  0  0
  -13.1726   14.9764  -27.3728 C   0  0  0  0  0  0  0  0  0  0  0  0
  -12.3853   14.3026  -28.2745 C   0  0  0  0  0  0  0  0  0  0  0  0
  -11.3051   14.9067  -28.9313 C   0  0  0  0  0  0  0  0  0  0  0  0
  -10.9816   16.2471  -28.6646 N   0  0  0  0  0  0  0  0  0  0  0  0
  -10.1415   16.9889  -29.5211 C   0  0  0  0  0  0  0  0  0  0  0  0
   -9.3104   17.9929  -28.9882 C   0  0  0  0  0  0  0  0  0  0  0  0
   -8.4827   18.7623  -29.7501 C   0  0  0  0  0  0  0  0  0  0  0  0
   -8.4546   18.5514  -31.1018 C   0  0  0  0  0  0  0  0  0  0  0  0
   -7.6394   19.3017  -31.8656 F   0  0  0  0  0  0  0  0  0  0  0  0
   -9.2453   17.5811  -31.6997 C   0  0  0  0  0  0  0  0  0  0  0  0
   -9.1906   17.3320  -33.4211 Cl  0  0  0  0  0  0  0  0  0  0  0  0
  -10.0713   16.8251  -30.8774 C   0  0  0  0  0  0  0  0  0  0  0  0
  -10.6022   14.1455  -29.7889 N   0  0  0  0  0  0  0  0  0  0  0  0
  -10.8750   12.8715  -30.0412 C   0  0  0  0  0  0  0  0  0  0  0  0
  -11.8920   12.2724  -29.4340 N   0  0  0  0  0  0  0  0  0  0  0  0
  -12.6444   12.9712  -28.5584 C   0  0  0  0  0  0  0  0  0  0  0  0
  -13.7104   12.3689  -27.9034 C   0  0  0  0  0  0  0  0  0  0  0  0
  -14.5136   13.0000  -27.0038 C   0  0  0  0  0  0  0  0  0  0  0  0
  -15.5623   12.3758  -26.3731 O   0  0  0  0  0  0  0  0  0  0  0  0
  -16.6568   11.7381  -26.9342 C   0  0  1  0  0  0  0  0  0  0  0  0
  -16.3304   10.2776  -27.2796 C   0  0  0  0  0  0  0  0  0  0  0  0
  -17.6000    9.5850  -26.8101 C   0  0  0  0  0  0  0  0  0  0  0  0
  -17.7428   10.2003  -25.5454 O   0  0  0  0  0  0  0  0  0  0  0  0
  -17.6978   11.5633  -25.8382 C   0  0  0  0  0  0  0  0  0  0  0  0
  -15.8435   19.6103  -23.3345 C   0  0  0  0  0  0  0  0  0  0  0  0
  -15.7880   18.5519  -22.4639 O   0  0  0  0  0  0  0  0  0  0  0  0
  -16.8547   18.0196  -21.7428 C   0  0  0  0  0  0  0  0  0  0  0  0
  -16.1516   20.8588  -22.8647 C   0  0  0  0  0  0  0  0  0  0  0  0
  -16.4062   21.0579  -21.5173 O   0  0  0  0  0  0  0  0  0  0  0  0
  -15.3252   21.5700  -20.7325 C   0  0  0  0  0  0  0  0  0  0  0  0
  1  2  1  0
  2  3  1  0
  3  4  2  0
  4  5  1  0
  5  6  2  0
  6  7  1  0
  7  8  2  0
  8  9  1  0
  9 10  2  0
  9 11  1  0
 11 12  1  0
 12 13  2  0
 13 14  1  0
 14 15  2  0
 15 16  1  0
 16 17  1  0
 17 18  2  0
 18 19  1  0
 19 20  2  0
 20 21  1  0
 20 22  1  0
 22 23  1  0
 22 24  2  0
 15 25  1  0
 25 26  2  0
 26 27  1  0
 27 28  2  0
 28 29  1  0
 29 30  2  0
 30 31  1  0
 32 31  1  1
 32 33  1  0
 33 34  1  0
 34 35  1  0
 35 36  1  0
  6 37  1  0
 37 38  1  0
 38 39  1  0
 37 40  2  0
 40 41  1  0
 41 42  1  0
 40  3  1  0
 30 12  1  0
 36 32  1  0
 28 14  1  0
 24 17  1  0
M  END
$$$$
CHEMBL3763790_diffdock_3
     RDKit          3D

 42 46  0  0  0  0  0  0  0  0999 V2000
  -15.5562   20.8897  -18.3047 C   0  0  0  0  0  0  0  0  0  0  0  0
  -16.3184   19.7982  -18.7967 O   0  0  0  0  0  0  0  0  0  0  0  0
  -15.9720   19.0973  -19.9379 C   0  0  0  0  0  0  0  0  0  0  0  0
  -14.7572   18.4755  -20.1247 C   0  0  0  0  0  0  0  0  0  0  0  0
  -14.4960   17.7890  -21.3051 C   0  0  0  0  0  0  0  0  0  0  0  0
  -15.4147   17.6977  -22.3239 C   0  0  0  0  0  0  0  0  0  0  0  0
  -15.1958   16.9646  -23.5537 C   0  0  0  0  0  0  0  0  0  0  0  0
  -14.9057   17.5439  -24.6938 C   0  0  0  0  0  0  0  0  0  0  0  0
  -14.2355   16.7911  -25.7498 C   0  0  0  0  0  0  0  0  0  0  0  0
  -13.2997   17.3125  -26.3710 O   0  0  0  0  0  0  0  0  0  0  0  0
  -14.6350   15.4701  -26.0868 N   0  0  0  0  0  0  0  0  0  0  0  0
  -13.8278   14.6921  -26.9562 C   0  0  0  0  0  0  0  0  0  0  0  0
  -12.8163   15.3467  -27.6747 C   0  0  0  0  0  0  0  0  0  0  0  0
  -12.0035   14.6481  -28.5339 C   0  0  0  0  0  0  0  0  0  0  0  0
  -10.9768   15.2597  -29.2653 C   0  0  0  0  0  0  0  0  0  0  0  0
  -10.7360   16.6359  -29.1218 N   0  0  0  0  0  0  0  0  0  0  0  0
   -9.9243   17.3430  -30.0334 C   0  0  0  0  0  0  0  0  0  0  0  0
   -9.1137   18.3989  -29.5748 C   0  0  0  0  0  0  0  0  0  0  0  0
   -8.3141   19.1392  -30.3935 C   0  0  0  0  0  0  0  0  0  0  0  0
   -8.2950   18.8443  -31.7296 C   0  0  0  0  0  0  0  0  0  0  0  0
   -7.5075   19.5650  -32.5489 F   0  0  0  0  0  0  0  0  0  0  0  0
   -9.0669   17.8188  -32.2557 C   0  0  0  0  0  0  0  0  0  0  0  0
   -9.0242   17.4632  -33.9586 Cl  0  0  0  0  0  0  0  0  0  0  0  0
   -9.8644   17.0958  -31.3775 C   0  0  0  0  0  0  0  0  0  0  0  0
  -10.2417   14.4728  -30.0712 N   0  0  0  0  0  0  0  0  0  0  0  0
  -10.4359   13.1671  -30.2071 C   0  0  0  0  0  0  0  0  0  0  0  0
  -11.4009   12.5600  -29.5271 N   0  0  0  0  0  0  0  0  0  0  0  0
  -12.1809   13.2834  -28.6969 C   0  0  0  0  0  0  0  0  0  0  0  0
  -13.1936   12.6743  -27.9678 C   0  0  0  0  0  0  0  0  0  0  0  0
  -14.0196   13.3293  -27.1066 C   0  0  0  0  0  0  0  0  0  0  0  0
  -15.0141   12.6975  -26.4003 O   0  0  0  0  0  0  0  0  0  0  0  0
  -16.0234   11.8734  -26.8711 C   0  0  1  0  0  0  0  0  0  0  0  0
  -15.5250   10.4312  -27.0464 C   0  0  0  0  0  0  0  0  0  0  0  0
  -16.7050    9.6536  -26.4854 C   0  0  0  0  0  0  0  0  0  0  0  0
  -16.9239   10.3922  -25.3001 O   0  0  0  0  0  0  0  0  0  0  0  0
  -17.0399   11.7070  -25.7510 C   0  0  0  0  0  0  0  0  0  0  0  0
  -16.6425   18.3401  -22.1113 C   0  0  0  0  0  0  0  0  0  0  0  0
  -17.5826   18.2712  -23.1076 O   0  0  0  0  0  0  0  0  0  0  0  0
  -17.9493   19.3029  -23.9692 C   0  0  0  0  0  0  0  0  0  0  0  0
  -16.9256   19.0221  -20.9585 C   0  0  0  0  0  0  0  0  0  0  0  0
  -18.1545   19.6408  -20.7934 O   0  0  0  0  0  0  0  0  0  0  0  0
  -19.2108   18.8316  -20.2680 C   0  0  0  0  0  0  0  0  0  0  0  0
  1  2  1  0
  2  3  1  0
  3  4  2  0
  4  5  1  0
  5  6  2  0
  6  7  1  0
  7  8  2  0
  8  9  1  0
  9 10  2  0
  9 11  1  0
 11 12  1  0
 12 13  2  0
 13 14  1  0
 14 15  2  0
 15 16  1  0
 16 17  1  0
 17 18  2  0
 18 19  1  0
 19 20  2  0
 20 21  1  0
 20 22  1  0
 22 23  1  0
 22 24  2  0
 15 25  1  0
 25 26  2  0
 26 27  1  0
 27 28  2  0
 28 29  1  0
 29 30  2  0
 30 31  1  0
 32 31  1  1
 32 33  1  0
 33 34  1  0
 34 35  1  0
 35 36  1  0
  6 37  1  0
 37 38  1  0
 38 39  1  0
 37 40  2  0
 40 41  1  0
 41 42  1  0
 40  3  1  0
 30 12  1  0
 36 32  1  0
 28 14  1  0
 24 17  1  0
M  END
$$$$
CHEMBL3763790_diffdock_4
     RDKit          3D

 42 46  0  0  0  0  0  0  0  0999 V2000
  -19.1585   19.3756  -18.7795 C   0  0  0  0  0  0  0  0  0  0  0  0
  -18.9397   19.8029  -20.1150 O   0  0  0  0  0  0  0  0  0  0  0  0
  -18.2346   19.0494  -21.0361 C   0  0  0  0  0  0  0  0  0  0  0  0
  -18.5666   17.7628  -21.3991 C   0  0  0  0  0  0  0  0  0  0  0  0
  -17.8011   17.0803  -22.3377 C   0  0  0  0  0  0  0  0  0  0  0  0
  -16.6984   17.6405  -22.9381 C   0  0  0  0  0  0  0  0  0  0  0  0
  -15.8950   16.9776  -23.9445 C   0  0  0  0  0  0  0  0  0  0  0  0
  -16.1193   17.0897  -25.2317 C   0  0  0  0  0  0  0  0  0  0  0  0
  -15.2112   16.4693  -26.1916 C   0  0  0  0  0  0  0  0  0  0  0  0
  -15.0417   16.9959  -27.2995 O   0  0  0  0  0  0  0  0  0  0  0  0
  -14.5169   15.2682  -25.8861 N   0  0  0  0  0  0  0  0  0  0  0  0
  -13.7491   14.6254  -26.8912 C   0  0  0  0  0  0  0  0  0  0  0  0
  -12.8265   15.4005  -27.6094 C   0  0  0  0  0  0  0  0  0  0  0  0
  -12.0557   14.8358  -28.5963 C   0  0  0  0  0  0  0  0  0  0  0  0
  -11.1172   15.5704  -29.3330 C   0  0  0  0  0  0  0  0  0  0  0  0
  -10.9242   16.9350  -29.0623 N   0  0  0  0  0  0  0  0  0  0  0  0
  -10.0490   17.7252  -29.8363 C   0  0  0  0  0  0  0  0  0  0  0  0
   -9.2680   18.7180  -29.2141 C   0  0  0  0  0  0  0  0  0  0  0  0
   -8.4111   19.5316  -29.8933 C   0  0  0  0  0  0  0  0  0  0  0  0
   -8.3009   19.3791  -31.2487 C   0  0  0  0  0  0  0  0  0  0  0  0
   -7.4561   20.1735  -31.9313 F   0  0  0  0  0  0  0  0  0  0  0  0
   -9.0384   18.4233  -31.9319 C   0  0  0  0  0  0  0  0  0  0  0  0
   -8.8795   18.2488  -33.6560 Cl  0  0  0  0  0  0  0  0  0  0  0  0
   -9.8973   17.6206  -31.1917 C   0  0  0  0  0  0  0  0  0  0  0  0
  -10.4159   14.9086  -30.2706 N   0  0  0  0  0  0  0  0  0  0  0  0
  -10.5648   13.6156  -30.5298 C   0  0  0  0  0  0  0  0  0  0  0  0
  -11.4460   12.8940  -29.8482 N   0  0  0  0  0  0  0  0  0  0  0  0
  -12.1875   13.4880  -28.8898 C   0  0  0  0  0  0  0  0  0  0  0  0
  -13.1124   12.7568  -28.1562 C   0  0  0  0  0  0  0  0  0  0  0  0
  -13.8943   13.2773  -27.1710 C   0  0  0  0  0  0  0  0  0  0  0  0
  -14.8018   12.5268  -26.4637 O   0  0  0  0  0  0  0  0  0  0  0  0
  -15.9901   11.9640  -26.9004 C   0  0  1  0  0  0  0  0  0  0  0  0
  -15.7377   10.6447  -27.6453 C   0  0  0  0  0  0  0  0  0  0  0  0
  -16.8560    9.7826  -27.0813 C   0  0  0  0  0  0  0  0  0  0  0  0
  -16.7072   10.0833  -25.7080 O   0  0  0  0  0  0  0  0  0  0  0  0
  -16.7457   11.4771  -25.6726 C   0  0  0  0  0  0  0  0  0  0  0  0
  -16.3795   18.9497  -22.5512 C   0  0  0  0  0  0  0  0  0  0  0  0
  -15.2843   19.5396  -23.1287 O   0  0  0  0  0  0  0  0  0  0  0  0
  -14.3690   20.3784  -22.4963 C   0  0  0  0  0  0  0  0  0  0  0  0
  -17.1165   19.6443  -21.6299 C   0  0  0  0  0  0  0  0  0  0  0  0
  -16.7627   20.9374  -21.2797 O   0  0  0  0  0  0  0  0  0  0  0  0
  -16.8977   21.2840  -19.8982 C   0  0  0  0  0  0  0  0  0  0  0  0
  1  2  1  0
  2  3  1  0
  3  4  2  0
  4  5  1  0
  5  6  2  0
  6  7  1  0
  7  8  2  0
  8  9  1  0
  9 10  2  0
  9 11  1  0
 11 12  1  0
 12 13  2  0
 13 14  1  0
 14 15  2  0
 15 16  1  0
 16 17  1  0
 17 18  2  0
 18 19  1  0
 19 20  2  0
 20 21  1  0
 20 22  1  0
 22 23  1  0
 22 24  2  0
 15 25  1  0
 25 26  2  0
 26 27  1  0
 27 28  2  0
 28 29  1  0
 29 30  2  0
 30 31  1  0
 32 31  1  1
 32 33  1  0
 33 34  1  0
 34 35  1  0
 35 36  1  0
  6 37  1  0
 37 38  1  0
 38 39  1  0
 37 40  2  0
 40 41  1  0
 41 42  1  0
 40  3  1  0
 30 12  1  0
 36 32  1  0
 28 14  1  0
 24 17  1  0
M  END
$$$$
CHEMBL3763790_diffdock_5
     RDKit          3D

 42 46  0  0  0  0  0  0  0  0999 V2000
  -18.1708   19.9366  -18.6173 C   0  0  0  0  0  0  0  0  0  0  0  0
  -18.5019   18.9249  -19.5560 O   0  0  0  0  0  0  0  0  0  0  0  0
  -17.7479   18.6795  -20.6893 C   0  0  0  0  0  0  0  0  0  0  0  0
  -16.7045   17.7818  -20.7447 C   0  0  0  0  0  0  0  0  0  0  0  0
  -16.0022   17.5965  -21.9302 C   0  0  0  0  0  0  0  0  0  0  0  0
  -16.3047   18.2838  -23.0818 C   0  0  0  0  0  0  0  0  0  0  0  0
  -15.6215   18.0959  -24.3449 C   0  0  0  0  0  0  0  0  0  0  0  0
  -16.0290   17.2541  -25.2642 C   0  0  0  0  0  0  0  0  0  0  0  0
  -15.0661   16.6305  -26.1669 C   0  0  0  0  0  0  0  0  0  0  0  0
  -14.4824   17.3243  -27.0102 O   0  0  0  0  0  0  0  0  0  0  0  0
  -14.7839   15.2396  -26.1041 N   0  0  0  0  0  0  0  0  0  0  0  0
  -14.0081   14.6332  -27.1255 C   0  0  0  0  0  0  0  0  0  0  0  0
  -12.9032   15.3424  -27.6197 C   0  0  0  0  0  0  0  0  0  0  0  0
  -12.1150   14.8091  -28.6102 C   0  0  0  0  0  0  0  0  0  0  0  0
  -10.9984   15.4788  -29.1277 C   0  0  0  0  0  0  0  0  0  0  0  0
  -10.6379   16.7383  -28.6216 N   0  0  0  0  0  0  0  0  0  0  0  0
   -9.5503   17.4637  -29.1512 C   0  0  0  0  0  0  0  0  0  0  0  0
   -9.2377   18.7344  -28.6313 C   0  0  0  0  0  0  0  0  0  0  0  0
   -8.2137   19.5033  -29.0981 C   0  0  0  0  0  0  0  0  0  0  0  0
   -7.4479   19.0194  -30.1238 C   0  0  0  0  0  0  0  0  0  0  0  0
   -6.4315   19.7665  -30.5922 F   0  0  0  0  0  0  0  0  0  0  0  0
   -7.6954   17.7765  -30.6879 C   0  0  0  0  0  0  0  0  0  0  0  0
   -6.7062   17.1833  -31.9910 Cl  0  0  0  0  0  0  0  0  0  0  0  0
   -8.7515   17.0338  -30.1750 C   0  0  0  0  0  0  0  0  0  0  0  0
  -10.2985   14.8549  -30.0921 N   0  0  0  0  0  0  0  0  0  0  0  0
  -10.6065   13.6563  -30.5712 C   0  0  0  0  0  0  0  0  0  0  0  0
  -11.6585   12.9979  -30.1004 N   0  0  0  0  0  0  0  0  0  0  0  0
  -12.4103   13.5591  -29.1304 C   0  0  0  0  0  0  0  0  0  0  0  0
  -13.5126   12.8910  -28.6141 C   0  0  0  0  0  0  0  0  0  0  0  0
  -14.3182   13.3833  -27.6335 C   0  0  0  0  0  0  0  0  0  0  0  0
  -15.4033   12.6973  -27.1446 O   0  0  0  0  0  0  0  0  0  0  0  0
  -15.6548   11.3352  -27.1762 C   0  0  1  0  0  0  0  0  0  0  0  0
  -14.8397   10.5960  -26.1046 C   0  0  0  0  0  0  0  0  0  0  0  0
  -15.8832    9.6254  -25.5745 C   0  0  0  0  0  0  0  0  0  0  0  0
  -16.9698   10.5168  -25.4228 O   0  0  0  0  0  0  0  0  0  0  0  0
  -17.0757   11.1192  -26.6764 C   0  0  0  0  0  0  0  0  0  0  0  0
  -17.3689   19.1929  -23.0001 C   0  0  0  0  0  0  0  0  0  0  0  0
  -17.6976   19.8977  -24.1299 O   0  0  0  0  0  0  0  0  0  0  0  0
  -17.2117   21.1528  -24.4902 C   0  0  0  0  0  0  0  0  0  0  0  0
  -18.0772   19.3941  -21.8459 C   0  0  0  0  0  0  0  0  0  0  0  0
  -19.1223   20.3033  -21.8139 O   0  0  0  0  0  0  0  0  0  0  0  0
  -20.4014   19.8203  -22.2350 C   0  0  0  0  0  0  0  0  0  0  0  0
  1  2  1  0
  2  3  1  0
  3  4  2  0
  4  5  1  0
  5  6  2  0
  6  7  1  0
  7  8  2  0
  8  9  1  0
  9 10  2  0
  9 11  1  0
 11 12  1  0
 12 13  2  0
 13 14  1  0
 14 15  2  0
 15 16  1  0
 16 17  1  0
 17 18  2  0
 18 19  1  0
 19 20  2  0
 20 21  1  0
 20 22  1  0
 22 23  1  0
 22 24  2  0
 15 25  1  0
 25 26  2  0
 26 27  1  0
 27 28  2  0
 28 29  1  0
 29 30  2  0
 30 31  1  0
 32 31  1  1
 32 33  1  0
 33 34  1  0
 34 35  1  0
 35 36  1  0
  6 37  1  0
 37 38  1  0
 38 39  1  0
 37 40  2  0
 40 41  1  0
 41 42  1  0
 40  3  1  0
 30 12  1  0
 36 32  1  0
 28 14  1  0
 24 17  1  0
M  END
$$$$
CHEMBL3763790_diffdock_6
     RDKit          3D

 42 46  0  0  0  0  0  0  0  0999 V2000
  -19.9462   20.9258  -19.5353 C   0  0  0  0  0  0  0  0  0  0  0  0
  -19.6532   21.0908  -20.9141 O   0  0  0  0  0  0  0  0  0  0  0  0
  -18.8188   20.2346  -21.6098 C   0  0  0  0  0  0  0  0  0  0  0  0
  -19.1781   18.9706  -22.0228 C   0  0  0  0  0  0  0  0  0  0  0  0
  -18.2737   18.1786  -22.7213 C   0  0  0  0  0  0  0  0  0  0  0  0
  -17.0034   18.6053  -23.0284 C   0  0  0  0  0  0  0  0  0  0  0  0
  -16.0435   17.8262  -23.7830 C   0  0  0  0  0  0  0  0  0  0  0  0
  -16.2976   17.3242  -24.9675 C   0  0  0  0  0  0  0  0  0  0  0  0
  -15.2346   16.6850  -25.7371 C   0  0  0  0  0  0  0  0  0  0  0  0
  -14.6561   17.3240  -26.6261 O   0  0  0  0  0  0  0  0  0  0  0  0
  -14.8484   15.3398  -25.4928 N   0  0  0  0  0  0  0  0  0  0  0  0
  -14.0266   14.6634  -26.4308 C   0  0  0  0  0  0  0  0  0  0  0  0
  -12.9964   15.3901  -27.0459 C   0  0  0  0  0  0  0  0  0  0  0  0
  -12.1689   14.7913  -27.9644 C   0  0  0  0  0  0  0  0  0  0  0  0
  -11.1234   15.4768  -28.5970 C   0  0  0  0  0  0  0  0  0  0  0  0
  -10.8786   16.8247  -28.2873 N   0  0  0  0  0  0  0  0  0  0  0  0
  -10.0113   17.6166  -29.0686 C   0  0  0  0  0  0  0  0  0  0  0  0
   -9.1306   18.5178  -28.4403 C   0  0  0  0  0  0  0  0  0  0  0  0
   -8.2738   19.3273  -29.1243 C   0  0  0  0  0  0  0  0  0  0  0  0
   -8.2654   19.2640  -30.4912 C   0  0  0  0  0  0  0  0  0  0  0  0
   -7.4220   20.0552  -31.1791 F   0  0  0  0  0  0  0  0  0  0  0  0
   -9.1047   18.4014  -31.1810 C   0  0  0  0  0  0  0  0  0  0  0  0
   -9.0744   18.3392  -32.9198 Cl  0  0  0  0  0  0  0  0  0  0  0  0
   -9.9588   17.5986  -30.4354 C   0  0  0  0  0  0  0  0  0  0  0  0
  -10.3752   14.7846  -29.4744 N   0  0  0  0  0  0  0  0  0  0  0  0
  -10.5732   13.5055  -29.7674 C   0  0  0  0  0  0  0  0  0  0  0  0
  -11.5558   12.8301  -29.1839 N   0  0  0  0  0  0  0  0  0  0  0  0
  -12.3498   13.4568  -28.2907 C   0  0  0  0  0  0  0  0  0  0  0  0
  -13.3812   12.7739  -27.6597 C   0  0  0  0  0  0  0  0  0  0  0  0
  -14.2222   13.3293  -26.7448 C   0  0  0  0  0  0  0  0  0  0  0  0
  -15.2350   12.6264  -26.1388 O   0  0  0  0  0  0  0  0  0  0  0  0
  -15.2325   11.3165  -25.6872 C   0  0  1  0  0  0  0  0  0  0  0  0
  -14.4782   11.1909  -24.3552 C   0  0  0  0  0  0  0  0  0  0  0  0
  -15.4030   10.2549  -23.5933 C   0  0  0  0  0  0  0  0  0  0  0  0
  -16.6407   10.8788  -23.8711 O   0  0  0  0  0  0  0  0  0  0  0  0
  -16.6532   10.9749  -25.2626 C   0  0  0  0  0  0  0  0  0  0  0  0
  -16.6605   19.8941  -22.5960 C   0  0  0  0  0  0  0  0  0  0  0  0
  -15.4001   20.3521  -22.8835 O   0  0  0  0  0  0  0  0  0  0  0  0
  -14.4552   20.8012  -21.9633 C   0  0  0  0  0  0  0  0  0  0  0  0
  -17.5317   20.6947  -21.9072 C   0  0  0  0  0  0  0  0  0  0  0  0
  -17.1475   21.9625  -21.5010 O   0  0  0  0  0  0  0  0  0  0  0  0
  -17.7153   23.0620  -22.2189 C   0  0  0  0  0  0  0  0  0  0  0  0
  1  2  1  0
  2  3  1  0
  3  4  2  0
  4  5  1  0
  5  6  2  0
  6  7  1  0
  7  8  2  0
  8  9  1  0
  9 10  2  0
  9 11  1  0
 11 12  1  0
 12 13  2  0
 13 14  1  0
 14 15  2  0
 15 16  1  0
 16 17  1  0
 17 18  2  0
 18 19  1  0
 19 20  2  0
 20 21  1  0
 20 22  1  0
 22 23  1  0
 22 24  2  0
 15 25  1  0
 25 26  2  0
 26 27  1  0
 27 28  2  0
 28 29  1  0
 29 30  2  0
 30 31  1  0
 32 31  1  1
 32 33  1  0
 33 34  1  0
 34 35  1  0
 35 36  1  0
  6 37  1  0
 37 38  1  0
 38 39  1  0
 37 40  2  0
 40 41  1  0
 41 42  1  0
 40  3  1  0
 30 12  1  0
 36 32  1  0
 28 14  1  0
 24 17  1  0
M  END
$$$$
CHEMBL3763790_diffdock_7
     RDKit          3D

 42 46  0  0  0  0  0  0  0  0999 V2000
  -20.1667    9.1965  -26.3351 C   0  0  0  0  0  0  0  0  0  0  0  0
  -18.8475    8.6734  -26.3509 O   0  0  0  0  0  0  0  0  0  0  0  0
  -17.7296    9.4672  -26.5345 C   0  0  0  0  0  0  0  0  0  0  0  0
  -16.7609    9.2309  -27.4849 C   0  0  0  0  0  0  0  0  0  0  0  0
  -15.6703   10.0853  -27.6006 C   0  0  0  0  0  0  0  0  0  0  0  0
  -15.5051   11.1843  -26.7912 C   0  0  0  0  0  0  0  0  0  0  0  0
  -14.4030   12.1176  -26.9012 C   0  0  0  0  0  0  0  0  0  0  0  0
  -14.2223   12.8970  -27.9402 C   0  0  0  0  0  0  0  0  0  0  0  0
  -13.2096   13.9477  -27.9020 C   0  0  0  0  0  0  0  0  0  0  0  0
  -12.0169   13.6514  -28.0539 O   0  0  0  0  0  0  0  0  0  0  0  0
  -13.5601   15.3080  -27.6898 N   0  0  0  0  0  0  0  0  0  0  0  0
  -12.5494   16.3036  -27.6988 C   0  0  0  0  0  0  0  0  0  0  0  0
  -11.4440   16.1099  -28.5404 C   0  0  0  0  0  0  0  0  0  0  0  0
  -10.4318   17.0372  -28.5915 C   0  0  0  0  0  0  0  0  0  0  0  0
   -9.3138   16.8879  -29.4227 C   0  0  0  0  0  0  0  0  0  0  0  0
   -9.2052   15.7646  -30.2587 N   0  0  0  0  0  0  0  0  0  0  0  0
   -8.1451   15.6284  -31.1792 C   0  0  0  0  0  0  0  0  0  0  0  0
   -7.9488   14.4025  -31.8435 C   0  0  0  0  0  0  0  0  0  0  0  0
   -6.9402   14.1866  -32.7343 C   0  0  0  0  0  0  0  0  0  0  0  0
   -6.0722   15.2106  -32.9998 C   0  0  0  0  0  0  0  0  0  0  0  0
   -5.0738   15.0124  -33.8799 F   0  0  0  0  0  0  0  0  0  0  0  0
   -6.2011   16.4469  -32.3839 C   0  0  0  0  0  0  0  0  0  0  0  0
   -5.0845   17.7334  -32.7393 Cl  0  0  0  0  0  0  0  0  0  0  0  0
   -7.2462   16.6134  -31.4838 C   0  0  0  0  0  0  0  0  0  0  0  0
   -8.3892   17.8641  -29.3922 N   0  0  0  0  0  0  0  0  0  0  0  0
   -8.4799   18.9448  -28.6274 C   0  0  0  0  0  0  0  0  0  0  0  0
   -9.5275   19.1136  -27.8298 N   0  0  0  0  0  0  0  0  0  0  0  0
  -10.4981   18.1764  -27.8054 C   0  0  0  0  0  0  0  0  0  0  0  0
  -11.6087   18.3294  -26.9860 C   0  0  0  0  0  0  0  0  0  0  0  0
  -12.6323   17.4357  -26.9062 C   0  0  0  0  0  0  0  0  0  0  0  0
  -13.7178   17.6157  -26.0837 O   0  0  0  0  0  0  0  0  0  0  0  0
  -14.7452   18.5387  -26.1926 C   0  0  1  0  0  0  0  0  0  0  0  0
  -15.8999   18.1979  -25.2389 C   0  0  0  0  0  0  0  0  0  0  0  0
  -16.2416   19.5792  -24.7029 C   0  0  0  0  0  0  0  0  0  0  0  0
  -14.9380   20.0402  -24.4089 O   0  0  0  0  0  0  0  0  0  0  0  0
  -14.2469   19.8513  -25.6057 C   0  0  0  0  0  0  0  0  0  0  0  0
  -16.5027   11.4027  -25.8307 C   0  0  0  0  0  0  0  0  0  0  0  0
  -16.3695   12.4892  -25.0045 O   0  0  0  0  0  0  0  0  0  0  0  0
  -17.2438   13.5704  -24.9153 C   0  0  0  0  0  0  0  0  0  0  0  0
  -17.5869   10.5776  -25.6959 C   0  0  0  0  0  0  0  0  0  0  0  0
  -18.5482   10.8348  -24.7317 O   0  0  0  0  0  0  0  0  0  0  0  0
  -19.7425   11.4834  -25.1785 C   0  0  0  0  0  0  0  0  0  0  0  0
  1  2  1  0
  2  3  1  0
  3  4  2  0
  4  5  1  0
  5  6  2  0
  6  7  1  0
  7  8  2  0
  8  9  1  0
  9 10  2  0
  9 11  1  0
 11 12  1  0
 12 13  2  0
 13 14  1  0
 14 15  2  0
 15 16  1  0
 16 17  1  0
 17 18  2  0
 18 19  1  0
 19 20  2  0
 20 21  1  0
 20 22  1  0
 22 23  1  0
 22 24  2  0
 15 25  1  0
 25 26  2  0
 26 27  1  0
 27 28  2  0
 28 29  1  0
 29 30  2  0
 30 31  1  0
 32 31  1  1
 32 33  1  0
 33 34  1  0
 34 35  1  0
 35 36  1  0
  6 37  1  0
 37 38  1  0
 38 39  1  0
 37 40  2  0
 40 41  1  0
 41 42  1  0
 40  3  1  0
 30 12  1  0
 36 32  1  0
 28 14  1  0
 24 17  1  0
M  END
$$$$
CHEMBL3763790_diffdock_8
     RDKit          3D

 42 46  0  0  0  0  0  0  0  0999 V2000
  -18.4849   22.0551  -20.0539 C   0  0  0  0  0  0  0  0  0  0  0  0
  -18.7285   22.1305  -21.4501 O   0  0  0  0  0  0  0  0  0  0  0  0
  -18.2231   21.2087  -22.3490 C   0  0  0  0  0  0  0  0  0  0  0  0
  -18.3676   19.8448  -22.2217 C   0  0  0  0  0  0  0  0  0  0  0  0
  -17.8281   18.9911  -23.1772 C   0  0  0  0  0  0  0  0  0  0  0  0
  -17.1378   19.4527  -24.2729 C   0  0  0  0  0  0  0  0  0  0  0  0
  -16.5902   18.6004  -25.3081 C   0  0  0  0  0  0  0  0  0  0  0  0
  -16.0689   17.4215  -25.0672 C   0  0  0  0  0  0  0  0  0  0  0  0
  -15.2779   16.7458  -26.0913 C   0  0  0  0  0  0  0  0  0  0  0  0
  -15.0467   17.3220  -27.1627 O   0  0  0  0  0  0  0  0  0  0  0  0
  -14.7679   15.4353  -25.8897 N   0  0  0  0  0  0  0  0  0  0  0  0
  -13.9691   14.8300  -26.8938 C   0  0  0  0  0  0  0  0  0  0  0  0
  -12.9541   15.6011  -27.4794 C   0  0  0  0  0  0  0  0  0  0  0  0
  -12.1491   15.0717  -28.4586 C   0  0  0  0  0  0  0  0  0  0  0  0
  -11.1193   15.8031  -29.0649 C   0  0  0  0  0  0  0  0  0  0  0  0
  -10.8670   17.1253  -28.6645 N   0  0  0  0  0  0  0  0  0  0  0  0
   -9.8925   17.9184  -29.3057 C   0  0  0  0  0  0  0  0  0  0  0  0
   -9.0028   18.6917  -28.5357 C   0  0  0  0  0  0  0  0  0  0  0  0
   -8.0447   19.4942  -29.0793 C   0  0  0  0  0  0  0  0  0  0  0  0
   -7.9384   19.5541  -30.4423 C   0  0  0  0  0  0  0  0  0  0  0  0
   -6.9946   20.3398  -30.9925 F   0  0  0  0  0  0  0  0  0  0  0  0
   -8.7797   18.8216  -31.2669 C   0  0  0  0  0  0  0  0  0  0  0  0
   -8.6236   18.9146  -32.9975 Cl  0  0  0  0  0  0  0  0  0  0  0  0
   -9.7392   18.0200  -30.6612 C   0  0  0  0  0  0  0  0  0  0  0  0
  -10.3927   15.1774  -30.0081 N   0  0  0  0  0  0  0  0  0  0  0  0
  -10.5978   13.9226  -30.3880 C   0  0  0  0  0  0  0  0  0  0  0  0
  -11.5659   13.2050  -29.8314 N   0  0  0  0  0  0  0  0  0  0  0  0
  -12.3380   13.7640  -28.8762 C   0  0  0  0  0  0  0  0  0  0  0  0
  -13.3538   13.0355  -28.2716 C   0  0  0  0  0  0  0  0  0  0  0  0
  -14.1724   13.5217  -27.2988 C   0  0  0  0  0  0  0  0  0  0  0  0
  -15.1702   12.7750  -26.7208 O   0  0  0  0  0  0  0  0  0  0  0  0
  -15.2359   11.4022  -26.5457 C   0  0  1  0  0  0  0  0  0  0  0  0
  -14.3270   10.9462  -25.3947 C   0  0  0  0  0  0  0  0  0  0  0  0
  -15.2294    9.9353  -24.7048 C   0  0  0  0  0  0  0  0  0  0  0  0
  -16.4259   10.6869  -24.6629 O   0  0  0  0  0  0  0  0  0  0  0  0
  -16.6140   11.0762  -25.9890 C   0  0  0  0  0  0  0  0  0  0  0  0
  -17.0022   20.8440  -24.3796 C   0  0  0  0  0  0  0  0  0  0  0  0
  -16.3177   21.3400  -25.4597 O   0  0  0  0  0  0  0  0  0  0  0  0
  -14.9970   21.7839  -25.4669 C   0  0  0  0  0  0  0  0  0  0  0  0
  -17.5240   21.7068  -23.4535 C   0  0  0  0  0  0  0  0  0  0  0  0
  -17.3650   23.0752  -23.6021 O   0  0  0  0  0  0  0  0  0  0  0  0
  -16.5094   23.7246  -22.6572 C   0  0  0  0  0  0  0  0  0  0  0  0
  1  2  1  0
  2  3  1  0
  3  4  2  0
  4  5  1  0
  5  6  2  0
  6  7  1  0
  7  8  2  0
  8  9  1  0
  9 10  2  0
  9 11  1  0
 11 12  1  0
 12 13  2  0
 13 14  1  0
 14 15  2  0
 15 16  1  0
 16 17  1  0
 17 18  2  0
 18 19  1  0
 19 20  2  0
 20 21  1  0
 20 22  1  0
 22 23  1  0
 22 24  2  0
 15 25  1  0
 25 26  2  0
 26 27  1  0
 27 28  2  0
 28 29  1  0
 29 30  2  0
 30 31  1  0
 32 31  1  1
 32 33  1  0
 33 34  1  0
 34 35  1  0
 35 36  1  0
  6 37  1  0
 37 38  1  0
 38 39  1  0
 37 40  2  0
 40 41  1  0
 41 42  1  0
 40  3  1  0
 30 12  1  0
 36 32  1  0
 28 14  1  0
 24 17  1  0
M  END
$$$$
CHEMBL3763790_diffdock_9
     RDKit          3D

 42 46  0  0  0  0  0  0  0  0999 V2000
  -20.6217   18.8677  -19.7418 C   0  0  0  0  0  0  0  0  0  0  0  0
  -20.5324   19.2347  -21.1098 O   0  0  0  0  0  0  0  0  0  0  0  0
  -19.6324   18.6521  -21.9839 C   0  0  0  0  0  0  0  0  0  0  0  0
  -18.5789   19.3200  -22.5682 C   0  0  0  0  0  0  0  0  0  0  0  0
  -17.7203   18.6524  -23.4342 C   0  0  0  0  0  0  0  0  0  0  0  0
  -17.8746   17.3223  -23.7458 C   0  0  0  0  0  0  0  0  0  0  0  0
  -16.9838   16.5814  -24.6150 C   0  0  0  0  0  0  0  0  0  0  0  0
  -16.1214   17.1561  -25.4185 C   0  0  0  0  0  0  0  0  0  0  0  0
  -15.4196   16.3676  -26.4268 C   0  0  0  0  0  0  0  0  0  0  0  0
  -15.0763   16.9026  -27.4895 O   0  0  0  0  0  0  0  0  0  0  0  0
  -15.1230   14.9938  -26.2196 N   0  0  0  0  0  0  0  0  0  0  0  0
  -14.2997   14.3051  -27.1473 C   0  0  0  0  0  0  0  0  0  0  0  0
  -13.1761   14.9758  -27.6528 C   0  0  0  0  0  0  0  0  0  0  0  0
  -12.3421   14.3626  -28.5557 C   0  0  0  0  0  0  0  0  0  0  0  0
  -11.2055   14.9920  -29.0803 C   0  0  0  0  0  0  0  0  0  0  0  0
  -10.8726   16.2940  -28.6725 N   0  0  0  0  0  0  0  0  0  0  0  0
   -9.7600   16.9747  -29.2095 C   0  0  0  0  0  0  0  0  0  0  0  0
   -9.4276   16.8091  -30.5677 C   0  0  0  0  0  0  0  0  0  0  0  0
   -8.3609   17.4191  -31.1574 C   0  0  0  0  0  0  0  0  0  0  0  0
   -7.5705   18.2349  -30.3945 C   0  0  0  0  0  0  0  0  0  0  0  0
   -6.5160   18.8462  -30.9646 F   0  0  0  0  0  0  0  0  0  0  0  0
   -7.8342   18.4464  -29.0491 C   0  0  0  0  0  0  0  0  0  0  0  0
   -6.8140   19.4894  -28.1006 Cl  0  0  0  0  0  0  0  0  0  0  0  0
   -8.9334   17.8001  -28.4977 C   0  0  0  0  0  0  0  0  0  0  0  0
  -10.4607   14.2902  -29.9531 N   0  0  0  0  0  0  0  0  0  0  0  0
  -10.7426   13.0516  -30.3370 C   0  0  0  0  0  0  0  0  0  0  0  0
  -11.8126   12.4298  -29.8571 N   0  0  0  0  0  0  0  0  0  0  0  0
  -12.6094   13.0692  -28.9754 C   0  0  0  0  0  0  0  0  0  0  0  0
  -13.7316   12.4414  -28.4515 C   0  0  0  0  0  0  0  0  0  0  0  0
  -14.5823   13.0127  -27.5556 C   0  0  0  0  0  0  0  0  0  0  0  0
  -15.6861   12.3648  -27.0566 O   0  0  0  0  0  0  0  0  0  0  0  0
  -15.7533   11.1493  -26.3949 C   0  0  1  0  0  0  0  0  0  0  0  0
  -15.4847   11.3206  -24.8924 C   0  0  0  0  0  0  0  0  0  0  0  0
  -16.5511   10.4077  -24.3083 C   0  0  0  0  0  0  0  0  0  0  0  0
  -17.6598   10.8281  -25.0778 O   0  0  0  0  0  0  0  0  0  0  0  0
  -17.2095   10.7081  -26.3925 C   0  0  0  0  0  0  0  0  0  0  0  0
  -18.9548   16.6647  -23.1405 C   0  0  0  0  0  0  0  0  0  0  0  0
  -19.1402   15.3370  -23.4301 O   0  0  0  0  0  0  0  0  0  0  0  0
  -18.6805   14.2566  -22.6800 C   0  0  0  0  0  0  0  0  0  0  0  0
  -19.8146   17.2980  -22.2839 C   0  0  0  0  0  0  0  0  0  0  0  0
  -20.8682   16.6057  -21.7089 O   0  0  0  0  0  0  0  0  0  0  0  0
  -22.1396   16.7280  -22.3533 C   0  0  0  0  0  0  0  0  0  0  0  0
  1  2  1  0
  2  3  1  0
  3  4  2  0
  4  5  1  0
  5  6  2  0
  6  7  1  0
  7  8  2  0
  8  9  1  0
  9 10  2  0
  9 11  1  0
 11 12  1  0
 12 13  2  0
 13 14  1  0
 14 15  2  0
 15 16  1  0
 16 17  1  0
 17 18  2  0
 18 19  1  0
 19 20  2  0
 20 21  1  0
 20 22  1  0
 22 23  1  0
 22 24  2  0
 15 25  1  0
 25 26  2  0
 26 27  1  0
 27 28  2  0
 28 29  1  0
 29 30  2  0
 30 31  1  0
 32 31  1  6
 32 33  1  0
 33 34  1  0
 34 35  1  0
 35 36  1  0
  6 37  1  0
 37 38  1  0
 38 39  1  0
 37 40  2  0
 40 41  1  0
 41 42  1  0
 40  3  1  0
 30 12  1  0
 36 32  1  0
 28 14  1  0
 24 17  1  0
M  END
$$$$
CHEMBL3763790_diffdock_10
     RDKit          3D

 42 46  0  0  0  0  0  0  0  0999 V2000
  -20.4077   16.8283  -18.9378 C   0  0  0  0  0  0  0  0  0  0  0  0
  -19.3710   17.7307  -19.2916 O   0  0  0  0  0  0  0  0  0  0  0  0
  -18.5860   17.5645  -20.4183 C   0  0  0  0  0  0  0  0  0  0  0  0
  -18.2335   16.3400  -20.9416 C   0  0  0  0  0  0  0  0  0  0  0  0
  -17.4420   16.2676  -22.0823 C   0  0  0  0  0  0  0  0  0  0  0  0
  -16.9800   17.3877  -22.7319 C   0  0  0  0  0  0  0  0  0  0  0  0
  -16.1828   17.3568  -23.9407 C   0  0  0  0  0  0  0  0  0  0  0  0
  -16.3909   16.5066  -24.9172 C   0  0  0  0  0  0  0  0  0  0  0  0
  -15.3193   16.1919  -25.8571 C   0  0  0  0  0  0  0  0  0  0  0  0
  -15.4021   15.1749  -26.5587 O   0  0  0  0  0  0  0  0  0  0  0  0
  -14.1760   17.0255  -25.9844 N   0  0  0  0  0  0  0  0  0  0  0  0
  -13.1938   16.7264  -26.9634 C   0  0  0  0  0  0  0  0  0  0  0  0
  -13.0806   15.3967  -27.3955 C   0  0  0  0  0  0  0  0  0  0  0  0
  -12.1470   15.0442  -28.3395 C   0  0  0  0  0  0  0  0  0  0  0  0
  -12.0044   13.7304  -28.8051 C   0  0  0  0  0  0  0  0  0  0  0  0
  -12.8459   12.7173  -28.3173 N   0  0  0  0  0  0  0  0  0  0  0  0
  -12.5445   11.3522  -28.5055 C   0  0  0  0  0  0  0  0  0  0  0  0
  -13.4697   10.3698  -28.1034 C   0  0  0  0  0  0  0  0  0  0  0  0
  -13.2468    9.0319  -28.2370 C   0  0  0  0  0  0  0  0  0  0  0  0
  -12.0654    8.6180  -28.7899 C   0  0  0  0  0  0  0  0  0  0  0  0
  -11.8337    7.3000  -28.9309 F   0  0  0  0  0  0  0  0  0  0  0  0
  -11.1049    9.5267  -29.2091 C   0  0  0  0  0  0  0  0  0  0  0  0
   -9.6107    8.9747  -29.9099 Cl  0  0  0  0  0  0  0  0  0  0  0  0
  -11.3822   10.8786  -29.0496 C   0  0  0  0  0  0  0  0  0  0  0  0
  -11.0593   13.5060  -29.7353 N   0  0  0  0  0  0  0  0  0  0  0  0
  -10.2671   14.4502  -30.2272 C   0  0  0  0  0  0  0  0  0  0  0  0
  -10.3790   15.7038  -29.8054 N   0  0  0  0  0  0  0  0  0  0  0  0
  -11.3058   16.0077  -28.8727 C   0  0  0  0  0  0  0  0  0  0  0  0
  -11.4502   17.3116  -28.4175 C   0  0  0  0  0  0  0  0  0  0  0  0
  -12.3616   17.7022  -27.4850 C   0  0  0  0  0  0  0  0  0  0  0  0
  -12.4786   19.0014  -27.0542 O   0  0  0  0  0  0  0  0  0  0  0  0
  -12.9006   20.1154  -27.7616 C   0  0  1  0  0  0  0  0  0  0  0  0
  -13.5337   21.1578  -26.8280 C   0  0  0  0  0  0  0  0  0  0  0  0
  -12.9332   22.4387  -27.3853 C   0  0  0  0  0  0  0  0  0  0  0  0
  -11.5842   22.0309  -27.4954 O   0  0  0  0  0  0  0  0  0  0  0  0
  -11.6585   20.8533  -28.2393 C   0  0  0  0  0  0  0  0  0  0  0  0
  -17.3503   18.6220  -22.1795 C   0  0  0  0  0  0  0  0  0  0  0  0
  -16.9057   19.7610  -22.8007 O   0  0  0  0  0  0  0  0  0  0  0  0
  -17.4830   20.3751  -23.9102 C   0  0  0  0  0  0  0  0  0  0  0  0
  -18.1290   18.7216  -21.0579 C   0  0  0  0  0  0  0  0  0  0  0  0
  -18.4701   19.9645  -20.5491 O   0  0  0  0  0  0  0  0  0  0  0  0
  -17.4926   20.6069  -19.7253 C   0  0  0  0  0  0  0  0  0  0  0  0
  1  2  1  0
  2  3  1  0
  3  4  2  0
  4  5  1  0
  5  6  2  0
  6  7  1  0
  7  8  2  0
  8  9  1  0
  9 10  2  0
  9 11  1  0
 11 12  1  0
 12 13  2  0
 13 14  1  0
 14 15  2  0
 15 16  1  0
 16 17  1  0
 17 18  2  0
 18 19  1  0
 19 20  2  0
 20 21  1  0
 20 22  1  0
 22 23  1  0
 22 24  2  0
 15 25  1  0
 25 26  2  0
 26 27  1  0
 27 28  2  0
 28 29  1  0
 29 30  2  0
 30 31  1  0
 32 31  1  1
 32 33  1  0
 33 34  1  0
 34 35  1  0
 35 36  1  0
  6 37  1  0
 37 38  1  0
 38 39  1  0
 37 40  2  0
 40 41  1  0
 41 42  1  0
 40  3  1  0
 30 12  1  0
 36 32  1  0
 28 14  1  0
 24 17  1  0
M  END
$$$$
CHEMBL419137_diffdock_1
     RDKit          3D

 24 27  0  0  0  0  0  0  0  0999 V2000
   -7.9339   13.9718  -31.0101 C   0  0  0  0  0  0  0  0  0  0  0  0
   -8.6559   15.0519  -30.4382 O   0  0  0  0  0  0  0  0  0  0  0  0
   -9.8255   14.7958  -29.7275 C   0  0  0  0  0  0  0  0  0  0  0  0
  -10.2857   13.5204  -29.5233 C   0  0  0  0  0  0  0  0  0  0  0  0
  -11.4630   13.3597  -28.8015 C   0  0  0  0  0  0  0  0  0  0  0  0
  -11.9542   12.1261  -28.5754 N   0  0  0  0  0  0  0  0  0  0  0  0
  -13.0909   11.9880  -27.8776 C   0  0  0  0  0  0  0  0  0  0  0  0
  -13.7406   13.0644  -27.4045 N   0  0  0  0  0  0  0  0  0  0  0  0
  -13.3075   14.3187  -27.5932 C   0  0  0  0  0  0  0  0  0  0  0  0
  -13.9672   15.4783  -27.1092 N   0  0  0  0  0  4  0  0  0  0  0  0
  -13.9751   15.5418  -25.6739 C   0  0  1  0  0  0  0  0  0  0  0  0
  -12.8087   16.0592  -24.9257 C   0  0  0  0  0  0  0  0  0  0  0  0
  -13.9515   16.9896  -25.1295 C   0  0  2  0  0  0  0  0  0  0  0  0
  -14.8810   17.2805  -24.0191 C   0  0  0  0  0  0  0  0  0  0  0  0
  -16.1659   17.6668  -24.2811 C   0  0  0  0  0  0  0  0  0  0  0  0
  -17.0121   17.9320  -23.2251 C   0  0  0  0  0  0  0  0  0  0  0  0
  -16.5685   17.8093  -21.9234 C   0  0  0  0  0  0  0  0  0  0  0  0
  -15.2704   17.4188  -21.6817 C   0  0  0  0  0  0  0  0  0  0  0  0
  -14.4286   17.1551  -22.7208 C   0  0  0  0  0  0  0  0  0  0  0  0
  -12.1270   14.4676  -28.3176 C   0  0  0  0  0  0  0  0  0  0  0  0
  -11.6578   15.7455  -28.5272 C   0  0  0  0  0  0  0  0  0  0  0  0
  -10.4973   15.9218  -29.2374 C   0  0  0  0  0  0  0  0  0  0  0  0
  -10.0125   17.1942  -29.4571 O   0  0  0  0  0  0  0  0  0  0  0  0
  -10.5452   17.9521  -30.5216 C   0  0  0  0  0  0  0  0  0  0  0  0
  1  2  1  0
  2  3  1  0
  3  4  2  0
  4  5  1  0
  5  6  2  0
  6  7  1  0
  7  8  2  0
  8  9  1  0
  9 10  1  0
 11 10  1  6
 11 12  1  0
 12 13  1  0
 13 14  1  1
 14 15  2  0
 15 16  1  0
 16 17  2  0
 17 18  1  0
 18 19  2  0
  9 20  2  0
 20 21  1  0
 21 22  2  0
 22 23  1  0
 23 24  1  0
 22  3  1  0
 20  5  1  0
 13 11  1  0
 19 14  1  0
M  CHG  1  10   1
M  END
$$$$
CHEMBL419137_diffdock_2
     RDKit          3D

 24 27  0  0  0  0  0  0  0  0999 V2000
   -8.3736   15.3769  -31.1238 C   0  0  0  0  0  0  0  0  0  0  0  0
   -9.1363   16.2814  -30.3395 O   0  0  0  0  0  0  0  0  0  0  0  0
  -10.1526   15.7930  -29.5226 C   0  0  0  0  0  0  0  0  0  0  0  0
  -10.7054   14.5531  -29.7151 C   0  0  0  0  0  0  0  0  0  0  0  0
  -11.7158   14.1482  -28.8502 C   0  0  0  0  0  0  0  0  0  0  0  0
  -12.2892   12.9387  -28.9999 N   0  0  0  0  0  0  0  0  0  0  0  0
  -13.2626   12.5629  -28.1574 C   0  0  0  0  0  0  0  0  0  0  0  0
  -13.6685   13.3789  -27.1704 N   0  0  0  0  0  0  0  0  0  0  0  0
  -13.1412   14.5939  -26.9657 C   0  0  0  0  0  0  0  0  0  0  0  0
  -13.5448   15.4821  -25.9349 N   0  0  0  0  0  4  0  0  0  0  0  0
  -14.4643   16.4809  -26.4052 C   0  0  1  0  0  0  0  0  0  0  0  0
  -15.8074   16.6270  -25.8029 C   0  0  0  0  0  0  0  0  0  0  0  0
  -14.7560   17.5802  -25.3567 C   0  0  2  0  0  0  0  0  0  0  0  0
  -14.7521   18.9704  -25.8558 C   0  0  0  0  0  0  0  0  0  0  0  0
  -13.5806   19.6708  -25.9307 C   0  0  0  0  0  0  0  0  0  0  0  0
  -13.6062   20.9670  -26.4006 C   0  0  0  0  0  0  0  0  0  0  0  0
  -14.7967   21.5483  -26.7893 C   0  0  0  0  0  0  0  0  0  0  0  0
  -15.9654   20.8250  -26.7058 C   0  0  0  0  0  0  0  0  0  0  0  0
  -15.9472   19.5433  -26.2423 C   0  0  0  0  0  0  0  0  0  0  0  0
  -12.1297   14.9890  -27.8381 C   0  0  0  0  0  0  0  0  0  0  0  0
  -11.5689   16.2332  -27.6517 C   0  0  0  0  0  0  0  0  0  0  0  0
  -10.5707   16.6483  -28.4963 C   0  0  0  0  0  0  0  0  0  0  0  0
   -9.9976   17.8910  -28.3246 O   0  0  0  0  0  0  0  0  0  0  0  0
  -10.5127   18.7474  -27.3284 C   0  0  0  0  0  0  0  0  0  0  0  0
  1  2  1  0
  2  3  1  0
  3  4  2  0
  4  5  1  0
  5  6  2  0
  6  7  1  0
  7  8  2  0
  8  9  1  0
  9 10  1  0
 11 10  1  1
 11 12  1  0
 12 13  1  0
 13 14  1  6
 14 15  2  0
 15 16  1  0
 16 17  2  0
 17 18  1  0
 18 19  2  0
  9 20  2  0
 20 21  1  0
 21 22  2  0
 22 23  1  0
 23 24  1  0
 22  3  1  0
 20  5  1  0
 13 11  1  0
 19 14  1  0
M  CHG  1  10   1
M  END
$$$$
CHEMBL419137_diffdock_3
     RDKit          3D

 24 27  0  0  0  0  0  0  0  0999 V2000
   -8.5481   14.8110  -31.5772 C   0  0  0  0  0  0  0  0  0  0  0  0
   -8.7942   15.8024  -30.5916 O   0  0  0  0  0  0  0  0  0  0  0  0
   -9.8187   15.6124  -29.6680 C   0  0  0  0  0  0  0  0  0  0  0  0
  -10.4296   14.3961  -29.5022 C   0  0  0  0  0  0  0  0  0  0  0  0
  -11.4437   14.2993  -28.5561 C   0  0  0  0  0  0  0  0  0  0  0  0
  -12.0731   13.1252  -28.3576 N   0  0  0  0  0  0  0  0  0  0  0  0
  -13.0492   13.0483  -27.4414 C   0  0  0  0  0  0  0  0  0  0  0  0
  -13.4028   14.1272  -26.7234 N   0  0  0  0  0  0  0  0  0  0  0  0
  -12.8183   15.3244  -26.8704 C   0  0  0  0  0  0  0  0  0  0  0  0
  -13.1657   16.4848  -26.1307 N   0  0  0  0  0  4  0  0  0  0  0  0
  -14.5656   16.5281  -25.8106 C   0  0  1  0  0  0  0  0  0  0  0  0
  -15.3986   15.3068  -25.8591 C   0  0  0  0  0  0  0  0  0  0  0  0
  -14.9187   15.7484  -24.5220 C   0  0  2  0  0  0  0  0  0  0  0  0
  -15.8408   16.4242  -23.5867 C   0  0  0  0  0  0  0  0  0  0  0  0
  -15.3647   16.9766  -22.4305 C   0  0  0  0  0  0  0  0  0  0  0  0
  -16.2479   17.6015  -21.5756 C   0  0  0  0  0  0  0  0  0  0  0  0
  -17.5924   17.6681  -21.8828 C   0  0  0  0  0  0  0  0  0  0  0  0
  -18.0510   17.1051  -23.0526 C   0  0  0  0  0  0  0  0  0  0  0  0
  -17.1834   16.4859  -23.9021 C   0  0  0  0  0  0  0  0  0  0  0  0
  -11.8037   15.4095  -27.8210 C   0  0  0  0  0  0  0  0  0  0  0  0
  -11.1847   16.6279  -27.9938 C   0  0  0  0  0  0  0  0  0  0  0  0
  -10.1820   16.7407  -28.9233 C   0  0  0  0  0  0  0  0  0  0  0  0
   -9.5511   17.9529  -29.1100 O   0  0  0  0  0  0  0  0  0  0  0  0
   -9.9667   19.0627  -28.3439 C   0  0  0  0  0  0  0  0  0  0  0  0
  1  2  1  0
  2  3  1  0
  3  4  2  0
  4  5  1  0
  5  6  2  0
  6  7  1  0
  7  8  2  0
  8  9  1  0
  9 10  1  0
 11 10  1  6
 11 12  1  0
 12 13  1  0
 13 14  1  1
 14 15  2  0
 15 16  1  0
 16 17  2  0
 17 18  1  0
 18 19  2  0
  9 20  2  0
 20 21  1  0
 21 22  2  0
 22 23  1  0
 23 24  1  0
 22  3  1  0
 20  5  1  0
 13 11  1  0
 19 14  1  0
M  CHG  1  10   1
M  END
$$$$
CHEMBL419137_diffdock_4
     RDKit          3D

 24 27  0  0  0  0  0  0  0  0999 V2000
  -15.4034   10.9768  -26.2923 C   0  0  0  0  0  0  0  0  0  0  0  0
  -15.3649   12.3810  -26.0882 O   0  0  0  0  0  0  0  0  0  0  0  0
  -14.3836   13.1398  -26.7208 C   0  0  0  0  0  0  0  0  0  0  0  0
  -13.3088   12.5607  -27.3449 C   0  0  0  0  0  0  0  0  0  0  0  0
  -12.3781   13.3971  -27.9507 C   0  0  0  0  0  0  0  0  0  0  0  0
  -11.3058   12.8744  -28.5760 N   0  0  0  0  0  0  0  0  0  0  0  0
  -10.4171   13.6947  -29.1554 C   0  0  0  0  0  0  0  0  0  0  0  0
  -10.5867   15.0268  -29.1175 N   0  0  0  0  0  0  0  0  0  0  0  0
  -11.6299   15.6121  -28.5130 C   0  0  0  0  0  0  0  0  0  0  0  0
  -11.8411   17.0142  -28.4526 N   0  0  0  0  0  4  0  0  0  0  0  0
  -11.3065   17.5946  -27.2520 C   0  0  1  0  0  0  0  0  0  0  0  0
  -10.2578   18.6362  -27.3082 C   0  0  0  0  0  0  0  0  0  0  0  0
  -11.6572   19.0929  -27.0930 C   0  0  2  0  0  0  0  0  0  0  0  0
  -12.1033   19.5161  -25.7500 C   0  0  0  0  0  0  0  0  0  0  0  0
  -11.2196   19.5393  -24.7074 C   0  0  0  0  0  0  0  0  0  0  0  0
  -11.6633   19.9386  -23.4644 C   0  0  0  0  0  0  0  0  0  0  0  0
  -12.9799   20.3092  -23.2759 C   0  0  0  0  0  0  0  0  0  0  0  0
  -13.8536   20.2786  -24.3397 C   0  0  0  0  0  0  0  0  0  0  0  0
  -13.4216   19.8849  -25.5710 C   0  0  0  0  0  0  0  0  0  0  0  0
  -12.5559   14.7643  -27.9095 C   0  0  0  0  0  0  0  0  0  0  0  0
  -13.6387   15.3379  -27.2804 C   0  0  0  0  0  0  0  0  0  0  0  0
  -14.5666   14.5269  -26.6775 C   0  0  0  0  0  0  0  0  0  0  0  0
  -15.6572   15.0837  -26.0428 O   0  0  0  0  0  0  0  0  0  0  0  0
  -15.7369   16.4882  -25.9309 C   0  0  0  0  0  0  0  0  0  0  0  0
  1  2  1  0
  2  3  1  0
  3  4  2  0
  4  5  1  0
  5  6  2  0
  6  7  1  0
  7  8  2  0
  8  9  1  0
  9 10  1  0
 11 10  1  6
 11 12  1  0
 12 13  1  0
 13 14  1  1
 14 15  2  0
 15 16  1  0
 16 17  2  0
 17 18  1  0
 18 19  2  0
  9 20  2  0
 20 21  1  0
 21 22  2  0
 22 23  1  0
 23 24  1  0
 22  3  1  0
 20  5  1  0
 13 11  1  0
 19 14  1  0
M  CHG  1  10   1
M  END
$$$$
CHEMBL419137_diffdock_5
     RDKit          3D

 24 27  0  0  0  0  0  0  0  0999 V2000
  -15.9095   10.6873  -27.5004 C   0  0  0  0  0  0  0  0  0  0  0  0
  -15.7484   12.0446  -27.1174 O   0  0  0  0  0  0  0  0  0  0  0  0
  -14.6778   12.7778  -27.6224 C   0  0  0  0  0  0  0  0  0  0  0  0
  -13.7693   12.2303  -28.4913 C   0  0  0  0  0  0  0  0  0  0  0  0
  -12.7318   13.0375  -28.9441 C   0  0  0  0  0  0  0  0  0  0  0  0
  -11.8152   12.5440  -29.7987 N   0  0  0  0  0  0  0  0  0  0  0  0
  -10.8206   13.3355  -30.2262 C   0  0  0  0  0  0  0  0  0  0  0  0
  -10.7314   14.6100  -29.8112 N   0  0  0  0  0  0  0  0  0  0  0  0
  -11.6088   15.1636  -28.9626 C   0  0  0  0  0  0  0  0  0  0  0  0
  -11.5458   16.5048  -28.5027 N   0  0  0  0  0  4  0  0  0  0  0  0
  -11.0872   17.4090  -29.5207 C   0  0  1  0  0  0  0  0  0  0  0  0
  -11.6016   18.7935  -29.6008 C   0  0  0  0  0  0  0  0  0  0  0  0
  -10.2752   18.5985  -28.9560 C   0  0  2  0  0  0  0  0  0  0  0  0
   -9.0366   18.9423  -29.6835 C   0  0  0  0  0  0  0  0  0  0  0  0
   -7.9789   19.4957  -29.0174 C   0  0  0  0  0  0  0  0  0  0  0  0
   -6.8349   19.8068  -29.7216 C   0  0  0  0  0  0  0  0  0  0  0  0
   -6.7589   19.5629  -31.0785 C   0  0  0  0  0  0  0  0  0  0  0  0
   -7.8359   19.0047  -31.7301 C   0  0  0  0  0  0  0  0  0  0  0  0
   -8.9698   18.6949  -31.0401 C   0  0  0  0  0  0  0  0  0  0  0  0
  -12.6439   14.3456  -28.5156 C   0  0  0  0  0  0  0  0  0  0  0  0
  -13.5610   14.8878  -27.6424 C   0  0  0  0  0  0  0  0  0  0  0  0
  -14.5909   14.1050  -27.1859 C   0  0  0  0  0  0  0  0  0  0  0  0
  -15.5185   14.6310  -26.3111 O   0  0  0  0  0  0  0  0  0  0  0  0
  -15.4103   15.9875  -25.9375 C   0  0  0  0  0  0  0  0  0  0  0  0
  1  2  1  0
  2  3  1  0
  3  4  2  0
  4  5  1  0
  5  6  2  0
  6  7  1  0
  7  8  2  0
  8  9  1  0
  9 10  1  0
 11 10  1  1
 11 12  1  0
 12 13  1  0
 13 14  1  6
 14 15  2  0
 15 16  1  0
 16 17  2  0
 17 18  1  0
 18 19  2  0
  9 20  2  0
 20 21  1  0
 21 22  2  0
 22 23  1  0
 23 24  1  0
 22  3  1  0
 20  5  1  0
 13 11  1  0
 19 14  1  0
M  CHG  1  10   1
M  END
$$$$
CHEMBL419137_diffdock_6
     RDKit          3D

 24 27  0  0  0  0  0  0  0  0999 V2000
  -14.7675   10.8330  -26.2033 C   0  0  0  0  0  0  0  0  0  0  0  0
  -14.9471   12.2391  -26.1282 O   0  0  0  0  0  0  0  0  0  0  0  0
  -14.0238   13.0826  -26.7405 C   0  0  0  0  0  0  0  0  0  0  0  0
  -13.1215   12.6217  -27.6643 C   0  0  0  0  0  0  0  0  0  0  0  0
  -12.2367   13.5364  -28.2241 C   0  0  0  0  0  0  0  0  0  0  0  0
  -11.3322   13.1307  -29.1359 N   0  0  0  0  0  0  0  0  0  0  0  0
  -10.4857   14.0253  -29.6665 C   0  0  0  0  0  0  0  0  0  0  0  0
  -10.5321   15.3163  -29.2980 N   0  0  0  0  0  0  0  0  0  0  0  0
  -11.4062   15.7863  -28.3971 C   0  0  0  0  0  0  0  0  0  0  0  0
  -11.4837   17.1418  -27.9837 N   0  0  0  0  0  4  0  0  0  0  0  0
  -10.9088   18.0392  -28.9472 C   0  0  1  0  0  0  0  0  0  0  0  0
  -10.8080   19.4897  -28.6752 C   0  0  0  0  0  0  0  0  0  0  0  0
   -9.5811   18.6737  -28.4702 C   0  0  2  0  0  0  0  0  0  0  0  0
   -8.4874   18.7127  -29.4621 C   0  0  0  0  0  0  0  0  0  0  0  0
   -7.3149   18.0532  -29.2193 C   0  0  0  0  0  0  0  0  0  0  0  0
   -6.3107   18.1066  -30.1628 C   0  0  0  0  0  0  0  0  0  0  0  0
   -6.4868   18.8152  -31.3346 C   0  0  0  0  0  0  0  0  0  0  0  0
   -7.6757   19.4723  -31.5593 C   0  0  0  0  0  0  0  0  0  0  0  0
   -8.6725   19.4238  -30.6309 C   0  0  0  0  0  0  0  0  0  0  0  0
  -12.2877   14.8610  -27.8430 C   0  0  0  0  0  0  0  0  0  0  0  0
  -13.1975   15.3157  -26.9141 C   0  0  0  0  0  0  0  0  0  0  0  0
  -14.0778   14.4263  -26.3519 C   0  0  0  0  0  0  0  0  0  0  0  0
  -14.9958   14.8637  -25.4200 O   0  0  0  0  0  0  0  0  0  0  0  0
  -15.0249   16.2337  -25.0829 C   0  0  0  0  0  0  0  0  0  0  0  0
  1  2  1  0
  2  3  1  0
  3  4  2  0
  4  5  1  0
  5  6  2  0
  6  7  1  0
  7  8  2  0
  8  9  1  0
  9 10  1  0
 11 10  1  1
 11 12  1  0
 12 13  1  0
 13 14  1  6
 14 15  2  0
 15 16  1  0
 16 17  2  0
 17 18  1  0
 18 19  2  0
  9 20  2  0
 20 21  1  0
 21 22  2  0
 22 23  1  0
 23 24  1  0
 22  3  1  0
 20  5  1  0
 13 11  1  0
 19 14  1  0
M  CHG  1  10   1
M  END
$$$$
CHEMBL419137_diffdock_7
     RDKit          3D

 24 27  0  0  0  0  0  0  0  0999 V2000
  -14.9049   10.8309  -26.6076 C   0  0  0  0  0  0  0  0  0  0  0  0
  -15.0081   12.2299  -26.3905 O   0  0  0  0  0  0  0  0  0  0  0  0
  -14.0630   13.0834  -26.9538 C   0  0  0  0  0  0  0  0  0  0  0  0
  -13.0661   12.6216  -27.7742 C   0  0  0  0  0  0  0  0  0  0  0  0
  -12.1665   13.5467  -28.2916 C   0  0  0  0  0  0  0  0  0  0  0  0
  -11.1705   13.1405  -29.1022 N   0  0  0  0  0  0  0  0  0  0  0  0
  -10.3110   14.0452  -29.5931 C   0  0  0  0  0  0  0  0  0  0  0  0
  -10.4345   15.3469  -29.2845 N   0  0  0  0  0  0  0  0  0  0  0  0
  -11.4014   15.8181  -28.4849 C   0  0  0  0  0  0  0  0  0  0  0  0
  -11.5621   17.1846  -28.1371 N   0  0  0  0  0  4  0  0  0  0  0  0
  -11.1213   18.0680  -29.1809 C   0  0  1  0  0  0  0  0  0  0  0  0
  -11.4140   19.5171  -29.1296 C   0  0  0  0  0  0  0  0  0  0  0  0
  -10.0549   19.0837  -28.7073 C   0  0  2  0  0  0  0  0  0  0  0  0
   -8.8993   19.2780  -29.6065 C   0  0  0  0  0  0  0  0  0  0  0  0
   -9.0947   19.6555  -30.9057 C   0  0  0  0  0  0  0  0  0  0  0  0
   -7.9977   19.8297  -31.7229 C   0  0  0  0  0  0  0  0  0  0  0  0
   -6.7218   19.6259  -31.2363 C   0  0  0  0  0  0  0  0  0  0  0  0
   -6.5473   19.2460  -29.9244 C   0  0  0  0  0  0  0  0  0  0  0  0
   -7.6272   19.0720  -29.1112 C   0  0  0  0  0  0  0  0  0  0  0  0
  -12.2969   14.8822  -27.9724 C   0  0  0  0  0  0  0  0  0  0  0  0
  -13.3014   15.3378  -27.1473 C   0  0  0  0  0  0  0  0  0  0  0  0
  -14.1976   14.4381  -26.6282 C   0  0  0  0  0  0  0  0  0  0  0  0
  -15.2099   14.8762  -25.8001 O   0  0  0  0  0  0  0  0  0  0  0  0
  -15.5806   16.2373  -25.8382 C   0  0  0  0  0  0  0  0  0  0  0  0
  1  2  1  0
  2  3  1  0
  3  4  2  0
  4  5  1  0
  5  6  2  0
  6  7  1  0
  7  8  2  0
  8  9  1  0
  9 10  1  0
 11 10  1  1
 11 12  1  0
 12 13  1  0
 13 14  1  6
 14 15  2  0
 15 16  1  0
 16 17  2  0
 17 18  1  0
 18 19  2  0
  9 20  2  0
 20 21  1  0
 21 22  2  0
 22 23  1  0
 23 24  1  0
 22  3  1  0
 20  5  1  0
 13 11  1  0
 19 14  1  0
M  CHG  1  10   1
M  END
$$$$
CHEMBL419137_diffdock_8
     RDKit          3D

 24 27  0  0  0  0  0  0  0  0999 V2000
  -14.9684   10.1261  -26.0662 C   0  0  0  0  0  0  0  0  0  0  0  0
  -15.4535   11.4545  -26.1881 O   0  0  0  0  0  0  0  0  0  0  0  0
  -14.6801   12.4103  -26.8416 C   0  0  0  0  0  0  0  0  0  0  0  0
  -13.5211   12.0816  -27.4965 C   0  0  0  0  0  0  0  0  0  0  0  0
  -12.8133   13.1021  -28.1214 C   0  0  0  0  0  0  0  0  0  0  0  0
  -11.6693   12.8278  -28.7771 N   0  0  0  0  0  0  0  0  0  0  0  0
  -10.9982   13.8232  -29.3747 C   0  0  0  0  0  0  0  0  0  0  0  0
  -11.4554   15.0855  -29.3250 N   0  0  0  0  0  0  0  0  0  0  0  0
  -12.5854   15.4272  -28.6904 C   0  0  0  0  0  0  0  0  0  0  0  0
  -13.0980   16.7486  -28.6168 N   0  0  0  0  0  4  0  0  0  0  0  0
  -12.0804   17.7107  -28.2956 C   0  0  1  0  0  0  0  0  0  0  0  0
  -12.1801   19.1117  -28.7593 C   0  0  0  0  0  0  0  0  0  0  0  0
  -12.5796   18.8318  -27.3539 C   0  0  2  0  0  0  0  0  0  0  0  0
  -11.6799   19.1915  -26.2391 C   0  0  0  0  0  0  0  0  0  0  0  0
  -10.3538   18.8642  -26.2926 C   0  0  0  0  0  0  0  0  0  0  0  0
   -9.5368   19.2122  -25.2378 C   0  0  0  0  0  0  0  0  0  0  0  0
  -10.0503   19.8810  -24.1444 C   0  0  0  0  0  0  0  0  0  0  0  0
  -11.3891   20.2011  -24.1107 C   0  0  0  0  0  0  0  0  0  0  0  0
  -12.2023   19.8601  -25.1500 C   0  0  0  0  0  0  0  0  0  0  0  0
  -13.2862   14.3967  -28.0680 C   0  0  0  0  0  0  0  0  0  0  0  0
  -14.4516   14.7184  -27.4079 C   0  0  0  0  0  0  0  0  0  0  0  0
  -15.1623   13.7233  -26.7859 C   0  0  0  0  0  0  0  0  0  0  0  0
  -16.3315   14.0268  -26.1202 O   0  0  0  0  0  0  0  0  0  0  0  0
  -16.9035   15.3049  -26.2955 C   0  0  0  0  0  0  0  0  0  0  0  0
  1  2  1  0
  2  3  1  0
  3  4  2  0
  4  5  1  0
  5  6  2  0
  6  7  1  0
  7  8  2  0
  8  9  1  0
  9 10  1  0
 11 10  1  6
 11 12  1  0
 12 13  1  0
 13 14  1  1
 14 15  2  0
 15 16  1  0
 16 17  2  0
 17 18  1  0
 18 19  2  0
  9 20  2  0
 20 21  1  0
 21 22  2  0
 22 23  1  0
 23 24  1  0
 22  3  1  0
 20  5  1  0
 13 11  1  0
 19 14  1  0
M  CHG  1  10   1
M  END
$$$$
CHEMBL419137_diffdock_9
     RDKit          3D

 24 27  0  0  0  0  0  0  0  0999 V2000
  -15.7872   11.3641  -26.7321 C   0  0  0  0  0  0  0  0  0  0  0  0
  -15.7077   12.7739  -26.5876 O   0  0  0  0  0  0  0  0  0  0  0  0
  -14.7023   13.4758  -27.2473 C   0  0  0  0  0  0  0  0  0  0  0  0
  -13.8098   12.8527  -28.0813 C   0  0  0  0  0  0  0  0  0  0  0  0
  -12.8388   13.6336  -28.6978 C   0  0  0  0  0  0  0  0  0  0  0  0
  -11.9403   13.0663  -29.5254 N   0  0  0  0  0  0  0  0  0  0  0  0
  -11.0100   13.8333  -30.1123 C   0  0  0  0  0  0  0  0  0  0  0  0
  -10.9670   15.1562  -29.8828 N   0  0  0  0  0  0  0  0  0  0  0  0
  -11.8297   15.7839  -29.0716 C   0  0  0  0  0  0  0  0  0  0  0  0
  -11.8141   17.1779  -28.8055 N   0  0  0  0  0  4  0  0  0  0  0  0
  -11.2051   17.9288  -29.8683 C   0  0  1  0  0  0  0  0  0  0  0  0
  -11.2208   19.4079  -29.8650 C   0  0  0  0  0  0  0  0  0  0  0  0
   -9.9715   18.7413  -29.4089 C   0  0  2  0  0  0  0  0  0  0  0  0
   -8.7914   18.6863  -30.2954 C   0  0  0  0  0  0  0  0  0  0  0  0
   -8.1247   19.8333  -30.6248 C   0  0  0  0  0  0  0  0  0  0  0  0
   -7.0261   19.7526  -31.4543 C   0  0  0  0  0  0  0  0  0  0  0  0
   -6.6061   18.5321  -31.9445 C   0  0  0  0  0  0  0  0  0  0  0  0
   -7.2920   17.3889  -31.6002 C   0  0  0  0  0  0  0  0  0  0  0  0
   -8.3787   17.4615  -30.7807 C   0  0  0  0  0  0  0  0  0  0  0  0
  -12.7982   14.9916  -28.4595 C   0  0  0  0  0  0  0  0  0  0  0  0
  -13.6986   15.6097  -27.6202 C   0  0  0  0  0  0  0  0  0  0  0  0
  -14.6633   14.8537  -27.0037 C   0  0  0  0  0  0  0  0  0  0  0  0
  -15.5734   15.4556  -26.1601 O   0  0  0  0  0  0  0  0  0  0  0  0
  -15.5061   16.8522  -25.9698 C   0  0  0  0  0  0  0  0  0  0  0  0
  1  2  1  0
  2  3  1  0
  3  4  2  0
  4  5  1  0
  5  6  2  0
  6  7  1  0
  7  8  2  0
  8  9  1  0
  9 10  1  0
 11 10  1  1
 11 12  1  0
 12 13  1  0
 13 14  1  6
 14 15  2  0
 15 16  1  0
 16 17  2  0
 17 18  1  0
 18 19  2  0
  9 20  2  0
 20 21  1  0
 21 22  2  0
 22 23  1  0
 23 24  1  0
 22  3  1  0
 20  5  1  0
 13 11  1  0
 19 14  1  0
M  CHG  1  10   1
M  END
$$$$
CHEMBL419137_diffdock_10
     RDKit          3D

 24 27  0  0  0  0  0  0  0  0999 V2000
  -15.6885   10.1793  -27.2105 C   0  0  0  0  0  0  0  0  0  0  0  0
  -15.8538   11.5214  -26.7791 O   0  0  0  0  0  0  0  0  0  0  0  0
  -14.8297   12.4410  -26.9895 C   0  0  0  0  0  0  0  0  0  0  0  0
  -13.8205   12.2098  -27.8884 C   0  0  0  0  0  0  0  0  0  0  0  0
  -12.8397   13.1846  -28.0327 C   0  0  0  0  0  0  0  0  0  0  0  0
  -11.8285   13.0022  -28.9035 N   0  0  0  0  0  0  0  0  0  0  0  0
  -10.8904   13.9519  -29.0309 C   0  0  0  0  0  0  0  0  0  0  0  0
  -10.9505   15.0780  -28.3010 N   0  0  0  0  0  0  0  0  0  0  0  0
  -11.9282   15.3229  -27.4175 C   0  0  0  0  0  0  0  0  0  0  0  0
  -12.0236   16.4995  -26.6296 N   0  0  0  0  0  4  0  0  0  0  0  0
  -11.6533   17.6780  -27.3632 C   0  0  1  0  0  0  0  0  0  0  0  0
  -12.6199   18.7759  -27.5835 C   0  0  0  0  0  0  0  0  0  0  0  0
  -11.6275   18.9545  -26.4896 C   0  0  2  0  0  0  0  0  0  0  0  0
  -10.4653   19.8463  -26.6779 C   0  0  0  0  0  0  0  0  0  0  0  0
  -10.3605   20.6105  -27.8065 C   0  0  0  0  0  0  0  0  0  0  0  0
   -9.2649   21.4342  -27.9562 C   0  0  0  0  0  0  0  0  0  0  0  0
   -8.2887   21.4862  -26.9812 C   0  0  0  0  0  0  0  0  0  0  0  0
   -8.4137   20.7082  -25.8520 C   0  0  0  0  0  0  0  0  0  0  0  0
   -9.4942   19.8917  -25.6977 C   0  0  0  0  0  0  0  0  0  0  0  0
  -12.9052   14.3394  -27.2814 C   0  0  0  0  0  0  0  0  0  0  0  0
  -13.9227   14.5638  -26.3804 C   0  0  0  0  0  0  0  0  0  0  0  0
  -14.8986   13.6121  -26.2257 C   0  0  0  0  0  0  0  0  0  0  0  0
  -15.9251   13.8197  -25.3282 O   0  0  0  0  0  0  0  0  0  0  0  0
  -16.0448   15.0825  -24.7099 C   0  0  0  0  0  0  0  0  0  0  0  0
  1  2  1  0
  2  3  1  0
  3  4  2  0
  4  5  1  0
  5  6  2  0
  6  7  1  0
  7  8  2  0
  8  9  1  0
  9 10  1  0
 11 10  1  1
 11 12  1  0
 12 13  1  0
 13 14  1  6
 14 15  2  0
 15 16  1  0
 16 17  2  0
 17 18  1  0
 18 19  2  0
  9 20  2  0
 20 21  1  0
 21 22  2  0
 22 23  1  0
 23 24  1  0
 22  3  1  0
 20  5  1  0
 13 11  1  0
 19 14  1  0
M  CHG  1  10   1
M  END
$$$$
CHEMBL3903641_diffdock_1
     RDKit          3D

 31 33  0  0  0  0  0  0  0  0999 V2000
  -12.3332   23.5101  -24.6249 C   0  0  0  0  0  0  0  0  0  0  0  0
  -13.2886   22.8728  -25.2500 C   0  0  0  0  0  0  0  0  0  0  0  0
  -13.1604   21.4583  -25.6603 C   0  0  0  0  0  0  0  0  0  0  0  0
  -11.9773   21.0519  -25.7292 O   0  0  0  0  0  0  0  0  0  0  0  0
  -14.2657   20.6600  -25.9405 N   0  0  0  0  0  0  0  0  0  0  0  0
  -14.1995   19.2739  -26.1914 C   0  0  0  0  0  0  0  0  0  0  0  0
  -15.0569   18.3326  -25.6849 C   0  0  0  0  0  0  0  0  0  0  0  0
  -14.9429   16.9608  -25.9628 C   0  0  0  0  0  0  0  0  0  0  0  0
  -13.9170   16.5692  -26.7834 C   0  0  0  0  0  0  0  0  0  0  0  0
  -13.0136   17.4555  -27.3336 C   0  0  0  0  0  0  0  0  0  0  0  0
  -11.9478   17.0187  -28.1806 N   0  0  0  0  0  0  0  0  0  0  0  0
  -11.7084   15.6675  -28.5125 C   0  0  0  0  0  0  0  0  0  0  0  0
  -12.5272   14.7319  -28.0199 N   0  0  0  0  0  0  0  0  0  0  0  0
  -12.3925   13.3954  -28.2800 C   0  0  0  0  0  0  0  0  0  0  0  0
  -13.2783   12.4639  -27.7053 N   0  0  0  0  0  0  0  0  0  0  0  0
  -14.4521   12.6826  -26.9964 C   0  0  0  0  0  0  0  0  0  0  0  0
  -14.6897   13.8182  -26.2751 C   0  0  0  0  0  0  0  0  0  0  0  0
  -15.8809   14.0112  -25.5544 C   0  0  0  0  0  0  0  0  0  0  0  0
  -16.8557   13.0545  -25.5516 C   0  0  0  0  0  0  0  0  0  0  0  0
  -16.6459   11.8972  -26.2707 C   0  0  0  0  0  0  0  0  0  0  0  0
  -15.4795   11.7284  -26.9659 C   0  0  0  0  0  0  0  0  0  0  0  0
  -15.2494   10.5640  -27.6991 O   0  0  0  0  0  0  0  0  0  0  0  0
  -16.2027    9.5144  -27.7234 C   0  0  0  0  0  0  0  0  0  0  0  0
  -11.3676   13.0913  -29.0769 N   0  0  0  0  0  0  0  0  0  0  0  0
  -10.5027   13.9695  -29.6110 C   0  0  0  0  0  0  0  0  0  0  0  0
  -10.6594   15.3217  -29.3301 C   0  0  0  0  0  0  0  0  0  0  0  0
   -9.7109   16.3056  -29.8955 C   0  0  0  0  0  0  0  0  0  0  0  0
   -9.2886   17.2077  -28.9184 F   0  0  0  0  0  0  0  0  0  0  0  0
   -8.5578   15.7347  -30.4011 F   0  0  0  0  0  0  0  0  0  0  0  0
  -10.3336   17.1050  -30.8586 F   0  0  0  0  0  0  0  0  0  0  0  0
  -13.1775   18.7745  -27.0245 C   0  0  0  0  0  0  0  0  0  0  0  0
  1  2  2  0
  2  3  1  0
  3  4  2  0
  3  5  1  0
  5  6  1  0
  6  7  2  0
  7  8  1  0
  8  9  2  0
  9 10  1  0
 10 11  1  0
 11 12  1  0
 12 13  2  0
 13 14  1  0
 14 15  1  0
 15 16  1  0
 16 17  2  0
 17 18  1  0
 18 19  2  0
 19 20  1  0
 20 21  2  0
 21 22  1  0
 22 23  1  0
 14 24  2  0
 24 25  1  0
 25 26  2  0
 26 27  1  0
 27 28  1  0
 27 29  1  0
 27 30  1  0
 10 31  2  0
 31  6  1  0
 26 12  1  0
 21 16  1  0
M  END
$$$$
CHEMBL3903641_diffdock_2
     RDKit          3D

 31 33  0  0  0  0  0  0  0  0999 V2000
  -13.6542   21.9680  -22.1985 C   0  0  0  0  0  0  0  0  0  0  0  0
  -13.2681   21.6229  -23.3991 C   0  0  0  0  0  0  0  0  0  0  0  0
  -13.7803   20.4140  -24.0787 C   0  0  0  0  0  0  0  0  0  0  0  0
  -14.6851   19.8189  -23.4489 O   0  0  0  0  0  0  0  0  0  0  0  0
  -13.2918   19.9875  -25.3104 N   0  0  0  0  0  0  0  0  0  0  0  0
  -13.6317   18.7603  -25.9163 C   0  0  0  0  0  0  0  0  0  0  0  0
  -14.7192   17.9903  -25.5966 C   0  0  0  0  0  0  0  0  0  0  0  0
  -15.0095   16.7705  -26.2289 C   0  0  0  0  0  0  0  0  0  0  0  0
  -14.1493   16.3515  -27.2107 C   0  0  0  0  0  0  0  0  0  0  0  0
  -13.0342   17.0701  -27.5907 C   0  0  0  0  0  0  0  0  0  0  0  0
  -12.1491   16.6057  -28.6130 N   0  0  0  0  0  0  0  0  0  0  0  0
  -11.8287   15.2463  -28.8199 C   0  0  0  0  0  0  0  0  0  0  0  0
  -12.6292   14.3122  -28.2952 N   0  0  0  0  0  0  0  0  0  0  0  0
  -12.4179   12.9680  -28.4373 C   0  0  0  0  0  0  0  0  0  0  0  0
  -13.2898   12.0411  -27.8348 N   0  0  0  0  0  0  0  0  0  0  0  0
  -14.3962   12.2660  -27.0263 C   0  0  0  0  0  0  0  0  0  0  0  0
  -14.5514   13.3911  -26.2670 C   0  0  0  0  0  0  0  0  0  0  0  0
  -15.6746   13.5903  -25.4458 C   0  0  0  0  0  0  0  0  0  0  0  0
  -16.6636   12.6508  -25.3789 C   0  0  0  0  0  0  0  0  0  0  0  0
  -16.5363   11.5045  -26.1341 C   0  0  0  0  0  0  0  0  0  0  0  0
  -15.4353   11.3293  -26.9274 C   0  0  0  0  0  0  0  0  0  0  0  0
  -15.2891   10.1757  -27.6983 O   0  0  0  0  0  0  0  0  0  0  0  0
  -16.2537    9.1373  -27.6513 C   0  0  0  0  0  0  0  0  0  0  0  0
  -11.3369   12.6542  -29.1523 N   0  0  0  0  0  0  0  0  0  0  0  0
  -10.4855   13.5302  -29.7112 C   0  0  0  0  0  0  0  0  0  0  0  0
  -10.7207   14.8907  -29.5508 C   0  0  0  0  0  0  0  0  0  0  0  0
   -9.7891   15.8736  -30.1452 C   0  0  0  0  0  0  0  0  0  0  0  0
   -8.6807   15.2346  -30.7020 F   0  0  0  0  0  0  0  0  0  0  0  0
  -10.3471   16.6153  -31.1696 F   0  0  0  0  0  0  0  0  0  0  0  0
   -9.2494   16.7093  -29.1630 F   0  0  0  0  0  0  0  0  0  0  0  0
  -12.8066   18.2465  -26.9376 C   0  0  0  0  0  0  0  0  0  0  0  0
  1  2  2  0
  2  3  1  0
  3  4  2  0
  3  5  1  0
  5  6  1  0
  6  7  2  0
  7  8  1  0
  8  9  2  0
  9 10  1  0
 10 11  1  0
 11 12  1  0
 12 13  2  0
 13 14  1  0
 14 15  1  0
 15 16  1  0
 16 17  2  0
 17 18  1  0
 18 19  2  0
 19 20  1  0
 20 21  2  0
 21 22  1  0
 22 23  1  0
 14 24  2  0
 24 25  1  0
 25 26  2  0
 26 27  1  0
 27 28  1  0
 27 29  1  0
 27 30  1  0
 10 31  2  0
 31  6  1  0
 26 12  1  0
 21 16  1  0
M  END
$$$$
CHEMBL3903641_diffdock_3
     RDKit          3D

 31 33  0  0  0  0  0  0  0  0999 V2000
  -12.9392   19.7636  -20.3041 C   0  0  0  0  0  0  0  0  0  0  0  0
  -12.7532   19.9370  -21.5867 C   0  0  0  0  0  0  0  0  0  0  0  0
  -13.3633   19.0525  -22.6021 C   0  0  0  0  0  0  0  0  0  0  0  0
  -14.0979   18.1573  -22.1242 O   0  0  0  0  0  0  0  0  0  0  0  0
  -13.1339   19.2132  -23.9656 N   0  0  0  0  0  0  0  0  0  0  0  0
  -13.5481   18.2953  -24.9528 C   0  0  0  0  0  0  0  0  0  0  0  0
  -14.7605   17.6577  -24.9866 C   0  0  0  0  0  0  0  0  0  0  0  0
  -15.1215   16.7464  -25.9922 C   0  0  0  0  0  0  0  0  0  0  0  0
  -14.2002   16.4999  -26.9769 C   0  0  0  0  0  0  0  0  0  0  0  0
  -12.9593   17.1025  -27.0138 C   0  0  0  0  0  0  0  0  0  0  0  0
  -12.0140   16.8213  -28.0490 N   0  0  0  0  0  0  0  0  0  0  0  0
  -11.6726   15.5181  -28.4712 C   0  0  0  0  0  0  0  0  0  0  0  0
  -12.4367   14.4949  -28.0740 N   0  0  0  0  0  0  0  0  0  0  0  0
  -12.2025   13.1940  -28.4268 C   0  0  0  0  0  0  0  0  0  0  0  0
  -13.0358   12.1642  -27.9496 N   0  0  0  0  0  0  0  0  0  0  0  0
  -14.1287   12.2367  -27.0960 C   0  0  0  0  0  0  0  0  0  0  0  0
  -14.3077   13.2473  -26.1943 C   0  0  0  0  0  0  0  0  0  0  0  0
  -15.4161   13.2921  -25.3311 C   0  0  0  0  0  0  0  0  0  0  0  0
  -16.3658   12.3112  -25.3661 C   0  0  0  0  0  0  0  0  0  0  0  0
  -16.2137   11.2778  -26.2659 C   0  0  0  0  0  0  0  0  0  0  0  0
  -15.1277   11.2524  -27.0978 C   0  0  0  0  0  0  0  0  0  0  0  0
  -14.9569   10.2147  -28.0146 O   0  0  0  0  0  0  0  0  0  0  0  0
  -15.9799    9.2579  -28.2355 C   0  0  0  0  0  0  0  0  0  0  0  0
  -11.1386   13.0205  -29.2118 N   0  0  0  0  0  0  0  0  0  0  0  0
  -10.3235   13.9927  -29.6532 C   0  0  0  0  0  0  0  0  0  0  0  0
  -10.5813   15.3063  -29.2791 C   0  0  0  0  0  0  0  0  0  0  0  0
   -9.6893   16.3917  -29.7414 C   0  0  0  0  0  0  0  0  0  0  0  0
  -10.3911   17.3166  -30.5151 F   0  0  0  0  0  0  0  0  0  0  0  0
   -9.1230   17.1188  -28.7111 F   0  0  0  0  0  0  0  0  0  0  0  0
   -8.7041   15.8978  -30.6016 F   0  0  0  0  0  0  0  0  0  0  0  0
  -12.6684   17.9773  -26.0077 C   0  0  0  0  0  0  0  0  0  0  0  0
  1  2  2  0
  2  3  1  0
  3  4  2  0
  3  5  1  0
  5  6  1  0
  6  7  2  0
  7  8  1  0
  8  9  2  0
  9 10  1  0
 10 11  1  0
 11 12  1  0
 12 13  2  0
 13 14  1  0
 14 15  1  0
 15 16  1  0
 16 17  2  0
 17 18  1  0
 18 19  2  0
 19 20  1  0
 20 21  2  0
 21 22  1  0
 22 23  1  0
 14 24  2  0
 24 25  1  0
 25 26  2  0
 26 27  1  0
 27 28  1  0
 27 29  1  0
 27 30  1  0
 10 31  2  0
 31  6  1  0
 26 12  1  0
 21 16  1  0
M  END
$$$$
CHEMBL3903641_diffdock_4
     RDKit          3D

 31 33  0  0  0  0  0  0  0  0999 V2000
  -11.2826   20.0834  -21.7728 C   0  0  0  0  0  0  0  0  0  0  0  0
  -12.4738   19.7192  -22.1704 C   0  0  0  0  0  0  0  0  0  0  0  0
  -12.6856   18.8680  -23.3604 C   0  0  0  0  0  0  0  0  0  0  0  0
  -12.0988   17.7624  -23.3084 O   0  0  0  0  0  0  0  0  0  0  0  0
  -13.4717   19.2719  -24.4357 N   0  0  0  0  0  0  0  0  0  0  0  0
  -13.9194   18.4102  -25.4583 C   0  0  0  0  0  0  0  0  0  0  0  0
  -15.2139   18.0001  -25.6421 C   0  0  0  0  0  0  0  0  0  0  0  0
  -15.6063   17.1347  -26.6761 C   0  0  0  0  0  0  0  0  0  0  0  0
  -14.6293   16.6932  -27.5305 C   0  0  0  0  0  0  0  0  0  0  0  0
  -13.3046   17.0614  -27.4128 C   0  0  0  0  0  0  0  0  0  0  0  0
  -12.3043   16.5796  -28.3137 N   0  0  0  0  0  0  0  0  0  0  0  0
  -12.1301   15.2177  -28.6423 C   0  0  0  0  0  0  0  0  0  0  0  0
  -12.9646   14.3182  -28.1102 N   0  0  0  0  0  0  0  0  0  0  0  0
  -12.8916   12.9757  -28.3632 C   0  0  0  0  0  0  0  0  0  0  0  0
  -13.7896   12.0835  -27.7465 N   0  0  0  0  0  0  0  0  0  0  0  0
  -14.8829   12.3522  -26.9335 C   0  0  0  0  0  0  0  0  0  0  0  0
  -14.9556   13.4431  -26.1143 C   0  0  0  0  0  0  0  0  0  0  0  0
  -16.0678   13.6868  -25.2902 C   0  0  0  0  0  0  0  0  0  0  0  0
  -17.1294   12.8275  -25.2813 C   0  0  0  0  0  0  0  0  0  0  0  0
  -17.0862   11.7175  -26.0977 C   0  0  0  0  0  0  0  0  0  0  0  0
  -15.9944   11.4980  -26.8928 C   0  0  0  0  0  0  0  0  0  0  0  0
  -15.9328   10.3802  -27.7253 O   0  0  0  0  0  0  0  0  0  0  0  0
  -16.8669    9.3209  -27.5981 C   0  0  0  0  0  0  0  0  0  0  0  0
  -11.9108   12.6260  -29.1961 N   0  0  0  0  0  0  0  0  0  0  0  0
  -11.0340   13.4660  -29.7710 C   0  0  0  0  0  0  0  0  0  0  0  0
  -11.1277   14.8253  -29.4964 C   0  0  0  0  0  0  0  0  0  0  0  0
  -10.1646   15.7673  -30.1068 C   0  0  0  0  0  0  0  0  0  0  0  0
   -9.5168   16.5205  -29.1271 F   0  0  0  0  0  0  0  0  0  0  0  0
   -9.1608   15.1443  -30.8245 F   0  0  0  0  0  0  0  0  0  0  0  0
  -10.8231   16.7167  -30.8939 F   0  0  0  0  0  0  0  0  0  0  0  0
  -12.9874   17.9034  -26.3869 C   0  0  0  0  0  0  0  0  0  0  0  0
  1  2  2  0
  2  3  1  0
  3  4  2  0
  3  5  1  0
  5  6  1  0
  6  7  2  0
  7  8  1  0
  8  9  2  0
  9 10  1  0
 10 11  1  0
 11 12  1  0
 12 13  2  0
 13 14  1  0
 14 15  1  0
 15 16  1  0
 16 17  2  0
 17 18  1  0
 18 19  2  0
 19 20  1  0
 20 21  2  0
 21 22  1  0
 22 23  1  0
 14 24  2  0
 24 25  1  0
 25 26  2  0
 26 27  1  0
 27 28  1  0
 27 29  1  0
 27 30  1  0
 10 31  2  0
 31  6  1  0
 26 12  1  0
 21 16  1  0
M  END
$$$$
CHEMBL3903641_diffdock_5
     RDKit          3D

 31 33  0  0  0  0  0  0  0  0999 V2000
  -15.3720   23.8462  -24.6933 C   0  0  0  0  0  0  0  0  0  0  0  0
  -14.4988   22.8734  -24.6649 C   0  0  0  0  0  0  0  0  0  0  0  0
  -14.7733   21.5455  -25.2540 C   0  0  0  0  0  0  0  0  0  0  0  0
  -15.8166   21.4997  -25.9459 O   0  0  0  0  0  0  0  0  0  0  0  0
  -13.9364   20.4520  -25.0504 N   0  0  0  0  0  0  0  0  0  0  0  0
  -14.0468   19.2292  -25.7440 C   0  0  0  0  0  0  0  0  0  0  0  0
  -15.1568   18.4261  -25.7673 C   0  0  0  0  0  0  0  0  0  0  0  0
  -15.2123   17.2124  -26.4716 C   0  0  0  0  0  0  0  0  0  0  0  0
  -14.0898   16.8349  -27.1621 C   0  0  0  0  0  0  0  0  0  0  0  0
  -12.9342   17.5886  -27.1890 C   0  0  0  0  0  0  0  0  0  0  0  0
  -11.7747   17.1671  -27.9115 N   0  0  0  0  0  0  0  0  0  0  0  0
  -11.5647   15.8460  -28.3629 C   0  0  0  0  0  0  0  0  0  0  0  0
  -12.3204   14.8671  -27.8537 N   0  0  0  0  0  0  0  0  0  0  0  0
  -12.2069   13.5543  -28.2216 C   0  0  0  0  0  0  0  0  0  0  0  0
  -13.0202   12.5728  -27.6236 N   0  0  0  0  0  0  0  0  0  0  0  0
  -14.1850   12.7228  -26.8825 C   0  0  0  0  0  0  0  0  0  0  0  0
  -14.4212   13.7948  -26.0693 C   0  0  0  0  0  0  0  0  0  0  0  0
  -15.6029   13.9180  -25.3183 C   0  0  0  0  0  0  0  0  0  0  0  0
  -16.5693   12.9547  -25.3779 C   0  0  0  0  0  0  0  0  0  0  0  0
  -16.3606   11.8606  -26.1902 C   0  0  0  0  0  0  0  0  0  0  0  0
  -15.2036   11.7592  -26.9135 C   0  0  0  0  0  0  0  0  0  0  0  0
  -14.9748   10.6593  -27.7407 O   0  0  0  0  0  0  0  0  0  0  0  0
  -15.9627    9.6571  -27.9153 C   0  0  0  0  0  0  0  0  0  0  0  0
  -11.2720   13.3208  -29.1434 N   0  0  0  0  0  0  0  0  0  0  0  0
  -10.4747   14.2460  -29.7028 C   0  0  0  0  0  0  0  0  0  0  0  0
  -10.6080   15.5728  -29.3107 C   0  0  0  0  0  0  0  0  0  0  0  0
   -9.7315   16.6066  -29.9026 C   0  0  0  0  0  0  0  0  0  0  0  0
   -8.6943   16.0222  -30.6302 F   0  0  0  0  0  0  0  0  0  0  0  0
  -10.3840   17.4441  -30.7879 F   0  0  0  0  0  0  0  0  0  0  0  0
   -9.0833   17.3433  -28.9069 F   0  0  0  0  0  0  0  0  0  0  0  0
  -12.9434   18.7569  -26.4838 C   0  0  0  0  0  0  0  0  0  0  0  0
  1  2  2  0
  2  3  1  0
  3  4  2  0
  3  5  1  0
  5  6  1  0
  6  7  2  0
  7  8  1  0
  8  9  2  0
  9 10  1  0
 10 11  1  0
 11 12  1  0
 12 13  2  0
 13 14  1  0
 14 15  1  0
 15 16  1  0
 16 17  2  0
 17 18  1  0
 18 19  2  0
 19 20  1  0
 20 21  2  0
 21 22  1  0
 22 23  1  0
 14 24  2  0
 24 25  1  0
 25 26  2  0
 26 27  1  0
 27 28  1  0
 27 29  1  0
 27 30  1  0
 10 31  2  0
 31  6  1  0
 26 12  1  0
 21 16  1  0
M  END
$$$$
CHEMBL3903641_diffdock_6
     RDKit          3D

 31 33  0  0  0  0  0  0  0  0999 V2000
  -14.3414   21.5061  -21.3840 C   0  0  0  0  0  0  0  0  0  0  0  0
  -13.6036   20.8920  -22.2718 C   0  0  0  0  0  0  0  0  0  0  0  0
  -14.1869   20.0878  -23.3666 C   0  0  0  0  0  0  0  0  0  0  0  0
  -15.3560   20.4163  -23.6744 O   0  0  0  0  0  0  0  0  0  0  0  0
  -13.4865   19.0603  -23.9920 N   0  0  0  0  0  0  0  0  0  0  0  0
  -13.9886   18.2984  -25.0672 C   0  0  0  0  0  0  0  0  0  0  0  0
  -15.2796   17.8568  -25.1937 C   0  0  0  0  0  0  0  0  0  0  0  0
  -15.7275   17.0947  -26.2849 C   0  0  0  0  0  0  0  0  0  0  0  0
  -14.8106   16.7916  -27.2580 C   0  0  0  0  0  0  0  0  0  0  0  0
  -13.4936   17.2002  -27.2040 C   0  0  0  0  0  0  0  0  0  0  0  0
  -12.5561   16.8632  -28.2296 N   0  0  0  0  0  0  0  0  0  0  0  0
  -12.1765   15.5408  -28.5464 C   0  0  0  0  0  0  0  0  0  0  0  0
  -12.8941   14.5303  -28.0440 N   0  0  0  0  0  0  0  0  0  0  0  0
  -12.6203   13.2124  -28.2892 C   0  0  0  0  0  0  0  0  0  0  0  0
  -13.4050   12.1999  -27.7049 N   0  0  0  0  0  0  0  0  0  0  0  0
  -14.5120   12.3096  -26.8736 C   0  0  0  0  0  0  0  0  0  0  0  0
  -14.7824   13.4242  -26.1314 C   0  0  0  0  0  0  0  0  0  0  0  0
  -15.9027   13.5067  -25.2866 C   0  0  0  0  0  0  0  0  0  0  0  0
  -16.7716   12.4585  -25.1781 C   0  0  0  0  0  0  0  0  0  0  0  0
  -16.5262   11.3196  -25.9151 C   0  0  0  0  0  0  0  0  0  0  0  0
  -15.4302   11.2590  -26.7319 C   0  0  0  0  0  0  0  0  0  0  0  0
  -15.1655   10.1148  -27.4850 O   0  0  0  0  0  0  0  0  0  0  0  0
  -16.0565    9.0116  -27.4774 C   0  0  0  0  0  0  0  0  0  0  0  0
  -11.5679   13.0082  -29.0822 N   0  0  0  0  0  0  0  0  0  0  0  0
  -10.7984   13.9660  -29.6255 C   0  0  0  0  0  0  0  0  0  0  0  0
  -11.0958   15.2974  -29.3595 C   0  0  0  0  0  0  0  0  0  0  0  0
  -10.2541   16.3686  -29.9353 C   0  0  0  0  0  0  0  0  0  0  0  0
  -10.9514   17.0769  -30.9145 F   0  0  0  0  0  0  0  0  0  0  0  0
   -9.8485   17.3113  -29.0091 F   0  0  0  0  0  0  0  0  0  0  0  0
   -9.1552   15.8322  -30.6128 F   0  0  0  0  0  0  0  0  0  0  0  0
  -13.1205   17.9368  -26.1176 C   0  0  0  0  0  0  0  0  0  0  0  0
  1  2  2  0
  2  3  1  0
  3  4  2  0
  3  5  1  0
  5  6  1  0
  6  7  2  0
  7  8  1  0
  8  9  2  0
  9 10  1  0
 10 11  1  0
 11 12  1  0
 12 13  2  0
 13 14  1  0
 14 15  1  0
 15 16  1  0
 16 17  2  0
 17 18  1  0
 18 19  2  0
 19 20  1  0
 20 21  2  0
 21 22  1  0
 22 23  1  0
 14 24  2  0
 24 25  1  0
 25 26  2  0
 26 27  1  0
 27 28  1  0
 27 29  1  0
 27 30  1  0
 10 31  2  0
 31  6  1  0
 26 12  1  0
 21 16  1  0
M  END
$$$$
CHEMBL3903641_diffdock_7
     RDKit          3D

 31 33  0  0  0  0  0  0  0  0999 V2000
  -11.3002   22.3059  -23.7830 C   0  0  0  0  0  0  0  0  0  0  0  0
  -12.4700   21.9411  -24.2394 C   0  0  0  0  0  0  0  0  0  0  0  0
  -12.6564   20.7235  -25.0569 C   0  0  0  0  0  0  0  0  0  0  0  0
  -11.6812   19.9376  -25.0321 O   0  0  0  0  0  0  0  0  0  0  0  0
  -13.8192   20.4841  -25.7837 N   0  0  0  0  0  0  0  0  0  0  0  0
  -14.0923   19.2826  -26.4695 C   0  0  0  0  0  0  0  0  0  0  0  0
  -15.2424   18.5465  -26.3562 C   0  0  0  0  0  0  0  0  0  0  0  0
  -15.4620   17.3511  -27.0596 C   0  0  0  0  0  0  0  0  0  0  0  0
  -14.4633   16.9209  -27.8944 C   0  0  0  0  0  0  0  0  0  0  0  0
  -13.2774   17.6059  -28.0639 C   0  0  0  0  0  0  0  0  0  0  0  0
  -12.2488   17.1302  -28.9357 N   0  0  0  0  0  0  0  0  0  0  0  0
  -11.9623   15.7636  -29.1440 C   0  0  0  0  0  0  0  0  0  0  0  0
  -12.7542   14.8487  -28.5745 N   0  0  0  0  0  0  0  0  0  0  0  0
  -12.5735   13.4997  -28.7132 C   0  0  0  0  0  0  0  0  0  0  0  0
  -13.4331   12.5939  -28.0627 N   0  0  0  0  0  0  0  0  0  0  0  0
  -14.6339   12.8318  -27.4070 C   0  0  0  0  0  0  0  0  0  0  0  0
  -14.8454   13.9165  -26.6039 C   0  0  0  0  0  0  0  0  0  0  0  0
  -16.0659   14.1289  -25.9398 C   0  0  0  0  0  0  0  0  0  0  0  0
  -17.0969   13.2438  -26.0779 C   0  0  0  0  0  0  0  0  0  0  0  0
  -16.9144   12.1392  -26.8823 C   0  0  0  0  0  0  0  0  0  0  0  0
  -15.7188   11.9503  -27.5204 C   0  0  0  0  0  0  0  0  0  0  0  0
  -15.5158   10.8385  -28.3383 O   0  0  0  0  0  0  0  0  0  0  0  0
  -16.0915    9.5820  -28.0210 C   0  0  0  0  0  0  0  0  0  0  0  0
  -11.5322   13.1602  -29.4740 N   0  0  0  0  0  0  0  0  0  0  0  0
  -10.6920   14.0158  -30.0795 C   0  0  0  0  0  0  0  0  0  0  0  0
  -10.8956   15.3816  -29.9215 C   0  0  0  0  0  0  0  0  0  0  0  0
   -9.9750   16.3423  -30.5672 C   0  0  0  0  0  0  0  0  0  0  0  0
   -8.8727   15.6843  -31.1139 F   0  0  0  0  0  0  0  0  0  0  0  0
  -10.5493   17.0418  -31.6122 F   0  0  0  0  0  0  0  0  0  0  0  0
   -9.4240   17.2174  -29.6265 F   0  0  0  0  0  0  0  0  0  0  0  0
  -13.1246   18.7598  -27.3516 C   0  0  0  0  0  0  0  0  0  0  0  0
  1  2  2  0
  2  3  1  0
  3  4  2  0
  3  5  1  0
  5  6  1  0
  6  7  2  0
  7  8  1  0
  8  9  2  0
  9 10  1  0
 10 11  1  0
 11 12  1  0
 12 13  2  0
 13 14  1  0
 14 15  1  0
 15 16  1  0
 16 17  2  0
 17 18  1  0
 18 19  2  0
 19 20  1  0
 20 21  2  0
 21 22  1  0
 22 23  1  0
 14 24  2  0
 24 25  1  0
 25 26  2  0
 26 27  1  0
 27 28  1  0
 27 29  1  0
 27 30  1  0
 10 31  2  0
 31  6  1  0
 26 12  1  0
 21 16  1  0
M  END
$$$$
CHEMBL3903641_diffdock_8
     RDKit          3D

 31 33  0  0  0  0  0  0  0  0999 V2000
  -14.5807   23.5969  -24.6005 C   0  0  0  0  0  0  0  0  0  0  0  0
  -14.1700   22.7641  -25.5210 C   0  0  0  0  0  0  0  0  0  0  0  0
  -14.6775   21.3790  -25.6192 C   0  0  0  0  0  0  0  0  0  0  0  0
  -15.1057   20.9143  -24.5374 O   0  0  0  0  0  0  0  0  0  0  0  0
  -14.6752   20.6670  -26.8152 N   0  0  0  0  0  0  0  0  0  0  0  0
  -14.6457   19.2596  -26.9000 C   0  0  0  0  0  0  0  0  0  0  0  0
  -15.5039   18.4065  -26.2570 C   0  0  0  0  0  0  0  0  0  0  0  0
  -15.4274   17.0090  -26.3718 C   0  0  0  0  0  0  0  0  0  0  0  0
  -14.4387   16.4976  -27.1720 C   0  0  0  0  0  0  0  0  0  0  0  0
  -13.5373   17.2898  -27.8532 C   0  0  0  0  0  0  0  0  0  0  0  0
  -12.5106   16.7295  -28.6754 N   0  0  0  0  0  0  0  0  0  0  0  0
  -12.2537   15.3453  -28.7813 C   0  0  0  0  0  0  0  0  0  0  0  0
  -13.2205   14.4862  -28.4410 N   0  0  0  0  0  0  0  0  0  0  0  0
  -13.0832   13.1267  -28.5092 C   0  0  0  0  0  0  0  0  0  0  0  0
  -14.1367   12.2823  -28.1097 N   0  0  0  0  0  0  0  0  0  0  0  0
  -14.8570   12.2701  -26.9225 C   0  0  0  0  0  0  0  0  0  0  0  0
  -14.7806   13.2666  -25.9910 C   0  0  0  0  0  0  0  0  0  0  0  0
  -15.5096   13.2255  -24.7901 C   0  0  0  0  0  0  0  0  0  0  0  0
  -16.3317   12.1712  -24.5104 C   0  0  0  0  0  0  0  0  0  0  0  0
  -16.4307   11.1498  -25.4310 C   0  0  0  0  0  0  0  0  0  0  0  0
  -15.7128   11.2085  -26.5944 C   0  0  0  0  0  0  0  0  0  0  0  0
  -15.8001   10.1844  -27.5376 O   0  0  0  0  0  0  0  0  0  0  0  0
  -16.8314    9.2134  -27.4700 C   0  0  0  0  0  0  0  0  0  0  0  0
  -11.8937   12.7160  -28.9503 N   0  0  0  0  0  0  0  0  0  0  0  0
  -10.8740   13.5125  -29.3112 C   0  0  0  0  0  0  0  0  0  0  0  0
  -11.0375   14.8904  -29.2310 C   0  0  0  0  0  0  0  0  0  0  0  0
   -9.9237   15.7869  -29.6097 C   0  0  0  0  0  0  0  0  0  0  0  0
   -9.3375   16.3566  -28.4790 F   0  0  0  0  0  0  0  0  0  0  0  0
   -8.8991   15.1437  -30.2786 F   0  0  0  0  0  0  0  0  0  0  0  0
  -10.3892   16.8802  -30.3461 F   0  0  0  0  0  0  0  0  0  0  0  0
  -13.6637   18.6399  -27.6995 C   0  0  0  0  0  0  0  0  0  0  0  0
  1  2  2  0
  2  3  1  0
  3  4  2  0
  3  5  1  0
  5  6  1  0
  6  7  2  0
  7  8  1  0
  8  9  2  0
  9 10  1  0
 10 11  1  0
 11 12  1  0
 12 13  2  0
 13 14  1  0
 14 15  1  0
 15 16  1  0
 16 17  2  0
 17 18  1  0
 18 19  2  0
 19 20  1  0
 20 21  2  0
 21 22  1  0
 22 23  1  0
 14 24  2  0
 24 25  1  0
 25 26  2  0
 26 27  1  0
 27 28  1  0
 27 29  1  0
 27 30  1  0
 10 31  2  0
 31  6  1  0
 26 12  1  0
 21 16  1  0
M  END
$$$$
CHEMBL3903641_diffdock_9
     RDKit          3D

 31 33  0  0  0  0  0  0  0  0999 V2000
  -19.1658   17.7427  -23.3554 C   0  0  0  0  0  0  0  0  0  0  0  0
  -18.3160   18.3333  -24.1545 C   0  0  0  0  0  0  0  0  0  0  0  0
  -16.9279   17.8550  -24.3276 C   0  0  0  0  0  0  0  0  0  0  0  0
  -16.6606   16.8176  -23.6780 O   0  0  0  0  0  0  0  0  0  0  0  0
  -16.0102   18.5089  -25.1447 N   0  0  0  0  0  0  0  0  0  0  0  0
  -14.6438   18.1714  -25.2307 C   0  0  0  0  0  0  0  0  0  0  0  0
  -13.7459   18.2222  -24.1968 C   0  0  0  0  0  0  0  0  0  0  0  0
  -12.3915   17.8794  -24.3379 C   0  0  0  0  0  0  0  0  0  0  0  0
  -11.9713   17.4768  -25.5791 C   0  0  0  0  0  0  0  0  0  0  0  0
  -12.8136   17.3980  -26.6694 C   0  0  0  0  0  0  0  0  0  0  0  0
  -12.3470   16.9821  -27.9553 N   0  0  0  0  0  0  0  0  0  0  0  0
  -12.0605   15.6417  -28.2937 C   0  0  0  0  0  0  0  0  0  0  0  0
  -12.8354   14.6743  -27.7914 N   0  0  0  0  0  0  0  0  0  0  0  0
  -12.6530   13.3445  -28.0565 C   0  0  0  0  0  0  0  0  0  0  0  0
  -13.4936   12.3784  -27.4711 N   0  0  0  0  0  0  0  0  0  0  0  0
  -14.5736   12.5498  -26.6153 C   0  0  0  0  0  0  0  0  0  0  0  0
  -14.7153   13.6352  -25.7978 C   0  0  0  0  0  0  0  0  0  0  0  0
  -15.8114   13.7800  -24.9300 C   0  0  0  0  0  0  0  0  0  0  0  0
  -16.7865   12.8253  -24.8745 C   0  0  0  0  0  0  0  0  0  0  0  0
  -16.6722   11.7180  -25.6879 C   0  0  0  0  0  0  0  0  0  0  0  0
  -15.5976   11.5956  -26.5260 C   0  0  0  0  0  0  0  0  0  0  0  0
  -15.4650   10.4822  -27.3562 O   0  0  0  0  0  0  0  0  0  0  0  0
  -16.5433    9.5821  -27.5507 C   0  0  0  0  0  0  0  0  0  0  0  0
  -11.6289   13.0816  -28.8691 N   0  0  0  0  0  0  0  0  0  0  0  0
  -10.8065   13.9935  -29.4137 C   0  0  0  0  0  0  0  0  0  0  0  0
  -11.0112   15.3382  -29.1274 C   0  0  0  0  0  0  0  0  0  0  0  0
  -10.1097   16.3589  -29.7044 C   0  0  0  0  0  0  0  0  0  0  0  0
   -9.1784   15.7723  -30.5619 F   0  0  0  0  0  0  0  0  0  0  0  0
  -10.7657   17.3124  -30.4603 F   0  0  0  0  0  0  0  0  0  0  0  0
   -9.3331   16.9607  -28.7098 F   0  0  0  0  0  0  0  0  0  0  0  0
  -14.1177   17.7456  -26.4675 C   0  0  0  0  0  0  0  0  0  0  0  0
  1  2  2  0
  2  3  1  0
  3  4  2  0
  3  5  1  0
  5  6  1  0
  6  7  2  0
  7  8  1  0
  8  9  2  0
  9 10  1  0
 10 11  1  0
 11 12  1  0
 12 13  2  0
 13 14  1  0
 14 15  1  0
 15 16  1  0
 16 17  2  0
 17 18  1  0
 18 19  2  0
 19 20  1  0
 20 21  2  0
 21 22  1  0
 22 23  1  0
 14 24  2  0
 24 25  1  0
 25 26  2  0
 26 27  1  0
 27 28  1  0
 27 29  1  0
 27 30  1  0
 10 31  2  0
 31  6  1  0
 26 12  1  0
 21 16  1  0
M  END
$$$$
CHEMBL3903641_diffdock_10
     RDKit          3D

 31 33  0  0  0  0  0  0  0  0999 V2000
 -107.6377   16.3452   37.3831 C   0  0  0  0  0  0  0  0  0  0  0  0
 -106.5864   17.0975   37.1875 C   0  0  0  0  0  0  0  0  0  0  0  0
 -105.2081   16.5958   37.3725 C   0  0  0  0  0  0  0  0  0  0  0  0
 -104.9361   16.2736   38.5522 O   0  0  0  0  0  0  0  0  0  0  0  0
 -104.3039   16.4942   36.3192 N   0  0  0  0  0  0  0  0  0  0  0  0
 -102.9328   16.8087   36.4183 C   0  0  0  0  0  0  0  0  0  0  0  0
 -102.1310   17.2044   35.3799 C   0  0  0  0  0  0  0  0  0  0  0  0
 -100.7669   17.5013   35.5323 C   0  0  0  0  0  0  0  0  0  0  0  0
 -100.2351   17.3830   36.7903 C   0  0  0  0  0  0  0  0  0  0  0  0
 -100.9763   16.9920   37.8866 C   0  0  0  0  0  0  0  0  0  0  0  0
 -100.3941   16.8693   39.1867 N   0  0  0  0  0  0  0  0  0  0  0  0
  -99.0035   16.8222   39.4259 C   0  0  0  0  0  0  0  0  0  0  0  0
  -98.1755   17.2936   38.4875 N   0  0  0  0  0  0  0  0  0  0  0  0
  -96.8133   17.3025   38.6154 C   0  0  0  0  0  0  0  0  0  0  0  0
  -96.0021   17.7919   37.5739 N   0  0  0  0  0  0  0  0  0  0  0  0
  -96.3691   18.3734   36.3674 C   0  0  0  0  0  0  0  0  0  0  0  0
  -97.6692   18.5389   35.9818 C   0  0  0  0  0  0  0  0  0  0  0  0
  -98.0159   19.1185   34.7492 C   0  0  0  0  0  0  0  0  0  0  0  0
  -97.0490   19.5421   33.8826 C   0  0  0  0  0  0  0  0  0  0  0  0
  -95.7272   19.3893   34.2433 C   0  0  0  0  0  0  0  0  0  0  0  0
  -95.4103   18.8228   35.4479 C   0  0  0  0  0  0  0  0  0  0  0  0
  -94.0784   18.6598   35.8298 O   0  0  0  0  0  0  0  0  0  0  0  0
  -93.0680   19.5316   35.3504 C   0  0  0  0  0  0  0  0  0  0  0  0
  -96.3663   16.7996   39.7666 N   0  0  0  0  0  0  0  0  0  0  0  0
  -97.1302   16.3083   40.7565 C   0  0  0  0  0  0  0  0  0  0  0  0
  -98.5115   16.3085   40.6016 C   0  0  0  0  0  0  0  0  0  0  0  0
  -99.3720   15.7598   41.6721 C   0  0  0  0  0  0  0  0  0  0  0  0
  -99.5658   16.6995   42.6851 F   0  0  0  0  0  0  0  0  0  0  0  0
 -100.6373   15.4095   41.2396 F   0  0  0  0  0  0  0  0  0  0  0  0
  -98.7498   14.6840   42.3126 F   0  0  0  0  0  0  0  0  0  0  0  0
 -102.2956   16.7167   37.6727 C   0  0  0  0  0  0  0  0  0  0  0  0
  1  2  2  0
  2  3  1  0
  3  4  2  0
  3  5  1  0
  5  6  1  0
  6  7  2  0
  7  8  1  0
  8  9  2  0
  9 10  1  0
 10 11  1  0
 11 12  1  0
 12 13  2  0
 13 14  1  0
 14 15  1  0
 15 16  1  0
 16 17  2  0
 17 18  1  0
 18 19  2  0
 19 20  1  0
 20 21  2  0
 21 22  1  0
 22 23  1  0
 14 24  2  0
 24 25  1  0
 25 26  2  0
 26 27  1  0
 27 28  1  0
 27 29  1  0
 27 30  1  0
 10 31  2  0
 31  6  1  0
 26 12  1  0
 21 16  1  0
M  END
$$$$
CHEMBL80540_diffdock_1
     RDKit          3D

 35 40  0  0  0  0  0  0  0  0999 V2000
  -10.3844   13.6653  -29.7404 C   0  0  0  0  0  0  0  0  0  0  0  0
  -10.4501   15.0395  -29.6560 C   0  0  0  0  0  0  0  0  0  0  0  0
  -11.5450   15.5190  -28.9650 C   0  0  0  0  0  0  0  0  0  0  0  0
  -11.8224   16.8924  -28.7453 N   0  0  0  0  0  0  0  0  0  0  0  0
  -10.9355   17.9255  -29.0862 C   0  0  0  0  0  0  0  0  0  0  0  0
  -10.4095   18.0079  -30.3460 C   0  0  0  0  0  0  0  0  0  0  0  0
   -9.5265   19.0156  -30.7178 C   0  0  0  0  0  0  0  0  0  0  0  0
   -9.1839   19.9509  -29.7692 C   0  0  0  0  0  0  0  0  0  0  0  0
   -8.3783   21.0160  -29.8145 N   0  0  0  0  0  0  0  0  0  0  0  0
   -8.3726   21.6189  -28.6184 C   0  0  0  0  0  0  0  0  0  0  0  0
   -9.1951   20.9308  -27.7703 C   0  0  0  0  0  0  0  0  0  0  0  0
   -9.7127   19.8731  -28.4912 C   0  0  0  0  0  0  0  0  0  0  0  0
  -10.5856   18.8642  -28.1510 C   0  0  0  0  0  0  0  0  0  0  0  0
  -12.4769   14.6163  -28.4193 C   0  0  0  0  0  0  0  0  0  0  0  0
  -13.9164   14.7966  -27.5276 S   0  0  0  0  0  0  0  0  0  0  0  0
  -14.3281   13.1452  -27.3268 C   0  0  0  0  0  0  0  0  0  0  0  0
  -15.4915   12.5615  -26.6292 C   0  0  0  0  0  0  0  0  0  0  0  0
  -16.4692   13.3439  -26.0860 C   0  0  0  0  0  0  0  0  0  0  0  0
  -17.5342   12.7089  -25.4346 C   0  0  0  0  0  0  0  0  0  0  0  0
  -17.6350   11.3456  -25.3211 C   0  0  0  0  0  0  0  0  0  0  0  0
  -18.7613   10.6447  -24.6316 C   0  0  0  0  0  0  0  0  0  0  0  0
  -18.2801   10.2837  -23.3307 N   0  0  0  0  0  0  0  0  0  0  0  0
  -19.3130   10.2618  -22.3085 C   0  0  0  0  0  0  0  0  0  0  0  0
  -18.8177   10.7802  -20.9952 C   0  0  0  0  0  0  0  0  0  0  0  0
  -19.8808   10.7859  -20.0410 N   0  0  0  0  0  0  0  0  0  0  0  0
  -19.7824    9.7334  -19.0635 C   0  0  0  0  0  0  0  0  0  0  0  0
  -21.0476    9.7836  -18.2094 C   0  0  0  0  0  0  0  0  0  0  0  0
  -21.0026   10.9682  -17.3724 N   0  0  0  0  0  0  0  0  0  0  0  0
  -20.0933   11.9689  -17.8863 C   0  0  0  0  0  0  0  0  0  0  0  0
  -20.0599   12.0385  -19.3764 C   0  0  0  0  0  0  0  0  0  0  0  0
  -16.6234   10.5599  -25.8849 C   0  0  0  0  0  0  0  0  0  0  0  0
  -15.5868   11.2020  -26.5192 C   0  0  0  0  0  0  0  0  0  0  0  0
  -13.3142   12.4982  -27.9717 C   0  0  0  0  0  0  0  0  0  0  0  0
  -12.3556   13.2663  -28.5373 C   0  0  0  0  0  0  0  0  0  0  0  0
  -11.2549   12.8155  -29.2306 N   0  0  0  0  0  0  0  0  0  0  0  0
  1  2  2  0
  2  3  1  0
  3  4  1  0
  4  5  1  0
  5  6  2  0
  6  7  1  0
  7  8  2  0
  8  9  1  0
  9 10  1  0
 10 11  2  0
 11 12  1  0
 12 13  2  0
  3 14  2  0
 14 15  1  0
 15 16  1  0
 16 17  1  0
 17 18  2  0
 18 19  1  0
 19 20  2  0
 20 21  1  0
 21 22  1  0
 22 23  1  0
 23 24  1  0
 24 25  1  0
 25 26  1  0
 26 27  1  0
 27 28  1  0
 28 29  1  0
 29 30  1  0
 20 31  1  0
 31 32  2  0
 16 33  2  0
 33 34  1  0
 34 35  2  0
 35  1  1  0
 13  5  1  0
 34 14  1  0
 12  8  1  0
 32 17  1  0
 30 25  1  0
M  END
$$$$
CHEMBL80540_diffdock_2
     RDKit          3D

 35 40  0  0  0  0  0  0  0  0999 V2000
   -9.9197   13.9847  -29.5307 C   0  0  0  0  0  0  0  0  0  0  0  0
   -9.9237   15.3430  -29.2964 C   0  0  0  0  0  0  0  0  0  0  0  0
  -10.9821   15.7886  -28.5299 C   0  0  0  0  0  0  0  0  0  0  0  0
  -11.1948   17.1400  -28.1558 N   0  0  0  0  0  0  0  0  0  0  0  0
  -10.3366   18.1887  -28.5214 C   0  0  0  0  0  0  0  0  0  0  0  0
  -10.8289   19.4400  -28.7714 C   0  0  0  0  0  0  0  0  0  0  0  0
  -10.0089   20.5012  -29.1382 C   0  0  0  0  0  0  0  0  0  0  0  0
   -8.6590   20.2611  -29.2476 C   0  0  0  0  0  0  0  0  0  0  0  0
   -7.6338   21.0538  -29.5737 N   0  0  0  0  0  0  0  0  0  0  0  0
   -6.4974   20.3455  -29.5401 C   0  0  0  0  0  0  0  0  0  0  0  0
   -6.7871   19.0578  -29.1832 C   0  0  0  0  0  0  0  0  0  0  0  0
   -8.1536   18.9961  -28.9963 C   0  0  0  0  0  0  0  0  0  0  0  0
   -8.9894   17.9636  -28.6342 C   0  0  0  0  0  0  0  0  0  0  0  0
  -11.9407   14.8706  -28.0615 C   0  0  0  0  0  0  0  0  0  0  0  0
  -13.3522   15.0113  -27.1191 S   0  0  0  0  0  0  0  0  0  0  0  0
  -13.8311   13.3661  -27.0879 C   0  0  0  0  0  0  0  0  0  0  0  0
  -15.0039   12.7579  -26.4281 C   0  0  0  0  0  0  0  0  0  0  0  0
  -15.9042   13.5093  -25.7295 C   0  0  0  0  0  0  0  0  0  0  0  0
  -16.9843   12.8513  -25.1277 C   0  0  0  0  0  0  0  0  0  0  0  0
  -17.1737   11.4952  -25.2107 C   0  0  0  0  0  0  0  0  0  0  0  0
  -18.3179   10.7702  -24.5779 C   0  0  0  0  0  0  0  0  0  0  0  0
  -18.5775   11.4289  -23.3318 N   0  0  0  0  0  0  0  0  0  0  0  0
  -19.4061   10.6563  -22.4214 C   0  0  0  0  0  0  0  0  0  0  0  0
  -20.6053   11.4237  -21.9614 C   0  0  0  0  0  0  0  0  0  0  0  0
  -20.9091   11.0875  -20.6066 N   0  0  0  0  0  0  0  0  0  0  0  0
  -19.7976   10.5152  -19.8925 C   0  0  0  0  0  0  0  0  0  0  0  0
  -20.3099   10.0839  -18.5198 C   0  0  0  0  0  0  0  0  0  0  0  0
  -20.5895   11.2683  -17.7294 N   0  0  0  0  0  0  0  0  0  0  0  0
  -20.7754   12.4446  -18.5505 C   0  0  0  0  0  0  0  0  0  0  0  0
  -21.4580   12.1672  -19.8479 C   0  0  0  0  0  0  0  0  0  0  0  0
  -16.2406   10.7415  -25.9318 C   0  0  0  0  0  0  0  0  0  0  0  0
  -15.1877   11.4058  -26.5142 C   0  0  0  0  0  0  0  0  0  0  0  0
  -12.8599   12.7524  -27.8247 C   0  0  0  0  0  0  0  0  0  0  0  0
  -11.8808   13.5377  -28.3280 C   0  0  0  0  0  0  0  0  0  0  0  0
  -10.8155   13.1207  -29.0939 N   0  0  0  0  0  0  0  0  0  0  0  0
  1  2  2  0
  2  3  1  0
  3  4  1  0
  4  5  1  0
  5  6  2  0
  6  7  1  0
  7  8  2  0
  8  9  1  0
  9 10  1  0
 10 11  2  0
 11 12  1  0
 12 13  2  0
  3 14  2  0
 14 15  1  0
 15 16  1  0
 16 17  1  0
 17 18  2  0
 18 19  1  0
 19 20  2  0
 20 21  1  0
 21 22  1  0
 22 23  1  0
 23 24  1  0
 24 25  1  0
 25 26  1  0
 26 27  1  0
 27 28  1  0
 28 29  1  0
 29 30  1  0
 20 31  1  0
 31 32  2  0
 16 33  2  0
 33 34  1  0
 34 35  2  0
 35  1  1  0
 13  5  1  0
 34 14  1  0
 12  8  1  0
 32 17  1  0
 30 25  1  0
M  END
$$$$
CHEMBL80540_diffdock_3
     RDKit          3D

 35 40  0  0  0  0  0  0  0  0999 V2000
  -10.0037   13.8049  -29.9845 C   0  0  0  0  0  0  0  0  0  0  0  0
   -9.9590   15.1717  -29.8118 C   0  0  0  0  0  0  0  0  0  0  0  0
  -10.9098   15.6704  -28.9437 C   0  0  0  0  0  0  0  0  0  0  0  0
  -11.0553   17.0404  -28.6069 N   0  0  0  0  0  0  0  0  0  0  0  0
  -10.2193   18.0526  -29.1032 C   0  0  0  0  0  0  0  0  0  0  0  0
  -10.6907   19.3241  -29.2811 C   0  0  0  0  0  0  0  0  0  0  0  0
   -9.8920   20.3505  -29.7728 C   0  0  0  0  0  0  0  0  0  0  0  0
   -8.5856   20.0538  -30.0848 C   0  0  0  0  0  0  0  0  0  0  0  0
   -7.5894   20.8031  -30.5662 N   0  0  0  0  0  0  0  0  0  0  0  0
   -6.4920   20.0473  -30.7023 C   0  0  0  0  0  0  0  0  0  0  0  0
   -6.7780   18.7724  -30.2998 C   0  0  0  0  0  0  0  0  0  0  0  0
   -8.1017   18.7680  -29.9074 C   0  0  0  0  0  0  0  0  0  0  0  0
   -8.9155   17.7711  -29.4180 C   0  0  0  0  0  0  0  0  0  0  0  0
  -11.8181   14.7925  -28.3230 C   0  0  0  0  0  0  0  0  0  0  0  0
  -13.1026   15.0013  -27.2246 S   0  0  0  0  0  0  0  0  0  0  0  0
  -13.5987   13.3688  -27.0630 C   0  0  0  0  0  0  0  0  0  0  0  0
  -14.6918   12.8128  -26.2405 C   0  0  0  0  0  0  0  0  0  0  0  0
  -15.4638   13.6060  -25.4417 C   0  0  0  0  0  0  0  0  0  0  0  0
  -16.4745   12.9960  -24.6880 C   0  0  0  0  0  0  0  0  0  0  0  0
  -16.7191   11.6466  -24.7192 C   0  0  0  0  0  0  0  0  0  0  0  0
  -17.7915   10.9724  -23.9250 C   0  0  0  0  0  0  0  0  0  0  0  0
  -18.3858   11.9847  -23.1027 N   0  0  0  0  0  0  0  0  0  0  0  0
  -19.1260   11.4587  -21.9678 C   0  0  0  0  0  0  0  0  0  0  0  0
  -18.8770   12.2444  -20.7191 C   0  0  0  0  0  0  0  0  0  0  0  0
  -19.6824   11.7360  -19.6544 N   0  0  0  0  0  0  0  0  0  0  0  0
  -20.8733   12.5086  -19.4140 C   0  0  0  0  0  0  0  0  0  0  0  0
  -21.5494   11.9312  -18.1721 C   0  0  0  0  0  0  0  0  0  0  0  0
  -22.1032   10.6307  -18.5006 N   0  0  0  0  0  0  0  0  0  0  0  0
  -21.4847   10.0511  -19.6727 C   0  0  0  0  0  0  0  0  0  0  0  0
  -20.0293   10.3566  -19.7944 C   0  0  0  0  0  0  0  0  0  0  0  0
  -15.9178   10.8495  -25.5445 C   0  0  0  0  0  0  0  0  0  0  0  0
  -14.9312   11.4671  -26.2755 C   0  0  0  0  0  0  0  0  0  0  0  0
  -12.7334   12.7052  -27.8836 C   0  0  0  0  0  0  0  0  0  0  0  0
  -11.8109   13.4487  -28.5356 C   0  0  0  0  0  0  0  0  0  0  0  0
  -10.8527   12.9783  -29.4050 N   0  0  0  0  0  0  0  0  0  0  0  0
  1  2  2  0
  2  3  1  0
  3  4  1  0
  4  5  1  0
  5  6  2  0
  6  7  1  0
  7  8  2  0
  8  9  1  0
  9 10  1  0
 10 11  2  0
 11 12  1  0
 12 13  2  0
  3 14  2  0
 14 15  1  0
 15 16  1  0
 16 17  1  0
 17 18  2  0
 18 19  1  0
 19 20  2  0
 20 21  1  0
 21 22  1  0
 22 23  1  0
 23 24  1  0
 24 25  1  0
 25 26  1  0
 26 27  1  0
 27 28  1  0
 28 29  1  0
 29 30  1  0
 20 31  1  0
 31 32  2  0
 16 33  2  0
 33 34  1  0
 34 35  2  0
 35  1  1  0
 13  5  1  0
 34 14  1  0
 12  8  1  0
 32 17  1  0
 30 25  1  0
M  END
$$$$
CHEMBL80540_diffdock_4
     RDKit          3D

 35 40  0  0  0  0  0  0  0  0999 V2000
  -10.3555   13.4825  -30.2164 C   0  0  0  0  0  0  0  0  0  0  0  0
  -10.1849   14.8261  -29.9605 C   0  0  0  0  0  0  0  0  0  0  0  0
  -11.1351   15.3745  -29.1222 C   0  0  0  0  0  0  0  0  0  0  0  0
  -11.1636   16.7323  -28.7139 N   0  0  0  0  0  0  0  0  0  0  0  0
  -10.1498   17.6538  -29.0185 C   0  0  0  0  0  0  0  0  0  0  0  0
   -9.5082   18.3410  -28.0252 C   0  0  0  0  0  0  0  0  0  0  0  0
   -8.5016   19.2628  -28.2903 C   0  0  0  0  0  0  0  0  0  0  0  0
   -8.1557   19.4751  -29.6046 C   0  0  0  0  0  0  0  0  0  0  0  0
   -7.2499   20.2771  -30.1720 N   0  0  0  0  0  0  0  0  0  0  0  0
   -7.2930   20.1237  -31.5019 C   0  0  0  0  0  0  0  0  0  0  0  0
   -8.2507   19.1984  -31.8115 C   0  0  0  0  0  0  0  0  0  0  0  0
   -8.8018   18.7829  -30.6157 C   0  0  0  0  0  0  0  0  0  0  0  0
   -9.7951   17.8752  -30.3237 C   0  0  0  0  0  0  0  0  0  0  0  0
  -12.1656   14.5642  -28.6097 C   0  0  0  0  0  0  0  0  0  0  0  0
  -13.4912   14.8471  -27.5788 S   0  0  0  0  0  0  0  0  0  0  0  0
  -14.1585   13.2689  -27.5442 C   0  0  0  0  0  0  0  0  0  0  0  0
  -15.3531   12.7868  -26.8223 C   0  0  0  0  0  0  0  0  0  0  0  0
  -16.1102   13.6202  -26.0505 C   0  0  0  0  0  0  0  0  0  0  0  0
  -17.2226   13.0793  -25.3935 C   0  0  0  0  0  0  0  0  0  0  0  0
  -17.5802   11.7587  -25.4928 C   0  0  0  0  0  0  0  0  0  0  0  0
  -18.7624   11.1581  -24.8022 C   0  0  0  0  0  0  0  0  0  0  0  0
  -19.4385   12.2357  -24.1421 N   0  0  0  0  0  0  0  0  0  0  0  0
  -19.0866   12.3772  -22.7390 C   0  0  0  0  0  0  0  0  0  0  0  0
  -19.4664   11.1718  -21.9381 C   0  0  0  0  0  0  0  0  0  0  0  0
  -19.9496   11.5716  -20.6547 N   0  0  0  0  0  0  0  0  0  0  0  0
  -19.3137   12.7582  -20.1443 C   0  0  0  0  0  0  0  0  0  0  0  0
  -19.8282   12.9768  -18.7229 C   0  0  0  0  0  0  0  0  0  0  0  0
  -21.2178   13.3906  -18.7848 N   0  0  0  0  0  0  0  0  0  0  0  0
  -21.8427   13.0290  -20.0382 C   0  0  0  0  0  0  0  0  0  0  0  0
  -21.3690   11.7257  -20.5891 C   0  0  0  0  0  0  0  0  0  0  0  0
  -16.7924   10.9197  -26.2891 C   0  0  0  0  0  0  0  0  0  0  0  0
  -15.7049   11.4696  -26.9249 C   0  0  0  0  0  0  0  0  0  0  0  0
  -13.3128   12.5632  -28.3500 C   0  0  0  0  0  0  0  0  0  0  0  0
  -12.2798   13.2401  -28.9008 C   0  0  0  0  0  0  0  0  0  0  0  0
  -11.3193   12.7192  -29.7384 N   0  0  0  0  0  0  0  0  0  0  0  0
  1  2  2  0
  2  3  1  0
  3  4  1  0
  4  5  1  0
  5  6  2  0
  6  7  1  0
  7  8  2  0
  8  9  1  0
  9 10  1  0
 10 11  2  0
 11 12  1  0
 12 13  2  0
  3 14  2  0
 14 15  1  0
 15 16  1  0
 16 17  1  0
 17 18  2  0
 18 19  1  0
 19 20  2  0
 20 21  1  0
 21 22  1  0
 22 23  1  0
 23 24  1  0
 24 25  1  0
 25 26  1  0
 26 27  1  0
 27 28  1  0
 28 29  1  0
 29 30  1  0
 20 31  1  0
 31 32  2  0
 16 33  2  0
 33 34  1  0
 34 35  2  0
 35  1  1  0
 13  5  1  0
 34 14  1  0
 12  8  1  0
 32 17  1  0
 30 25  1  0
M  END
$$$$
CHEMBL80540_diffdock_5
     RDKit          3D

 35 40  0  0  0  0  0  0  0  0999 V2000
  -10.1968   13.4570  -29.8902 C   0  0  0  0  0  0  0  0  0  0  0  0
  -10.1811   14.8286  -29.7541 C   0  0  0  0  0  0  0  0  0  0  0  0
  -11.1778   15.3350  -28.9440 C   0  0  0  0  0  0  0  0  0  0  0  0
  -11.3597   16.7110  -28.6527 N   0  0  0  0  0  0  0  0  0  0  0  0
  -10.5097   17.7218  -29.1279 C   0  0  0  0  0  0  0  0  0  0  0  0
   -9.8612   18.5556  -28.2592 C   0  0  0  0  0  0  0  0  0  0  0  0
   -9.0143   19.5688  -28.6944 C   0  0  0  0  0  0  0  0  0  0  0  0
   -8.8379   19.7197  -30.0502 C   0  0  0  0  0  0  0  0  0  0  0  0
   -8.1067   20.5790  -30.7662 N   0  0  0  0  0  0  0  0  0  0  0  0
   -8.2686   20.3197  -32.0702 C   0  0  0  0  0  0  0  0  0  0  0  0
   -9.1269   19.2647  -32.2101 C   0  0  0  0  0  0  0  0  0  0  0  0
   -9.4920   18.8790  -30.9357 C   0  0  0  0  0  0  0  0  0  0  0  0
  -10.3248   17.8834  -30.4763 C   0  0  0  0  0  0  0  0  0  0  0  0
  -12.0996   14.4593  -28.3401 C   0  0  0  0  0  0  0  0  0  0  0  0
  -13.4356   14.6766  -27.3066 S   0  0  0  0  0  0  0  0  0  0  0  0
  -13.9131   13.0411  -27.1216 C   0  0  0  0  0  0  0  0  0  0  0  0
  -15.0335   12.4896  -26.3335 C   0  0  0  0  0  0  0  0  0  0  0  0
  -15.3404   11.1597  -26.3557 C   0  0  0  0  0  0  0  0  0  0  0  0
  -16.4244   10.7214  -25.5845 C   0  0  0  0  0  0  0  0  0  0  0  0
  -17.1834   11.5654  -24.8142 C   0  0  0  0  0  0  0  0  0  0  0  0
  -18.3441   11.1219  -23.9826 C   0  0  0  0  0  0  0  0  0  0  0  0
  -18.0732   11.5538  -22.6432 N   0  0  0  0  0  0  0  0  0  0  0  0
  -19.0759   11.1353  -21.6778 C   0  0  0  0  0  0  0  0  0  0  0  0
  -18.4963   10.2747  -20.5999 C   0  0  0  0  0  0  0  0  0  0  0  0
  -19.2411   10.4384  -19.3919 N   0  0  0  0  0  0  0  0  0  0  0  0
  -19.1025   11.7450  -18.8030 C   0  0  0  0  0  0  0  0  0  0  0  0
  -19.8338   11.7215  -17.4623 C   0  0  0  0  0  0  0  0  0  0  0  0
  -21.2628   11.6590  -17.7077 N   0  0  0  0  0  0  0  0  0  0  0  0
  -21.5709   11.1667  -19.0325 C   0  0  0  0  0  0  0  0  0  0  0  0
  -20.6280   10.1157  -19.5148 C   0  0  0  0  0  0  0  0  0  0  0  0
  -16.8532   12.9253  -24.8036 C   0  0  0  0  0  0  0  0  0  0  0  0
  -15.7867   13.3353  -25.5675 C   0  0  0  0  0  0  0  0  0  0  0  0
  -13.0013   12.3698  -27.8836 C   0  0  0  0  0  0  0  0  0  0  0  0
  -12.0620   13.1105  -28.5142 C   0  0  0  0  0  0  0  0  0  0  0  0
  -11.0582   12.6325  -29.3263 N   0  0  0  0  0  0  0  0  0  0  0  0
  1  2  2  0
  2  3  1  0
  3  4  1  0
  4  5  1  0
  5  6  2  0
  6  7  1  0
  7  8  2  0
  8  9  1  0
  9 10  1  0
 10 11  2  0
 11 12  1  0
 12 13  2  0
  3 14  2  0
 14 15  1  0
 15 16  1  0
 16 17  1  0
 17 18  2  0
 18 19  1  0
 19 20  2  0
 20 21  1  0
 21 22  1  0
 22 23  1  0
 23 24  1  0
 24 25  1  0
 25 26  1  0
 26 27  1  0
 27 28  1  0
 28 29  1  0
 29 30  1  0
 20 31  1  0
 31 32  2  0
 16 33  2  0
 33 34  1  0
 34 35  2  0
 35  1  1  0
 13  5  1  0
 34 14  1  0
 12  8  1  0
 32 17  1  0
 30 25  1  0
M  END
$$$$
CHEMBL80540_diffdock_6
     RDKit          3D

 35 40  0  0  0  0  0  0  0  0999 V2000
  -10.1838   13.6002  -30.1719 C   0  0  0  0  0  0  0  0  0  0  0  0
  -10.0547   14.9522  -29.9371 C   0  0  0  0  0  0  0  0  0  0  0  0
  -10.9712   15.4681  -29.0425 C   0  0  0  0  0  0  0  0  0  0  0  0
  -11.0314   16.8275  -28.6427 N   0  0  0  0  0  0  0  0  0  0  0  0
  -10.1630   17.8167  -29.1296 C   0  0  0  0  0  0  0  0  0  0  0  0
   -9.9093   17.9267  -30.4690 C   0  0  0  0  0  0  0  0  0  0  0  0
   -9.0531   18.8924  -30.9861 C   0  0  0  0  0  0  0  0  0  0  0  0
   -8.4509   19.7563  -30.1012 C   0  0  0  0  0  0  0  0  0  0  0  0
   -7.5971   20.7683  -30.2809 N   0  0  0  0  0  0  0  0  0  0  0  0
   -7.2957   21.3105  -29.0938 C   0  0  0  0  0  0  0  0  0  0  0  0
   -7.9693   20.6360  -28.1137 C   0  0  0  0  0  0  0  0  0  0  0  0
   -8.7030   19.6503  -28.7432 C   0  0  0  0  0  0  0  0  0  0  0  0
   -9.5562   18.6842  -28.2591 C   0  0  0  0  0  0  0  0  0  0  0  0
  -11.9306   14.6200  -28.4582 C   0  0  0  0  0  0  0  0  0  0  0  0
  -13.1976   14.8566  -27.3452 S   0  0  0  0  0  0  0  0  0  0  0  0
  -13.7930   13.2520  -27.2561 C   0  0  0  0  0  0  0  0  0  0  0  0
  -14.9165   12.7270  -26.4545 C   0  0  0  0  0  0  0  0  0  0  0  0
  -15.5881   13.5101  -25.5607 C   0  0  0  0  0  0  0  0  0  0  0  0
  -16.6366   12.9303  -24.8353 C   0  0  0  0  0  0  0  0  0  0  0  0
  -17.0139   11.6199  -24.9848 C   0  0  0  0  0  0  0  0  0  0  0  0
  -18.1291   10.9786  -24.2231 C   0  0  0  0  0  0  0  0  0  0  0  0
  -18.6442   11.9796  -23.3362 N   0  0  0  0  0  0  0  0  0  0  0  0
  -20.0572   11.8243  -23.0335 C   0  0  0  0  0  0  0  0  0  0  0  0
  -20.2894   11.4402  -21.6062 C   0  0  0  0  0  0  0  0  0  0  0  0
  -21.0900   12.4305  -20.9589 N   0  0  0  0  0  0  0  0  0  0  0  0
  -22.4383   11.9990  -20.6963 C   0  0  0  0  0  0  0  0  0  0  0  0
  -23.2009   13.1982  -20.1368 C   0  0  0  0  0  0  0  0  0  0  0  0
  -22.7160   13.4804  -18.7985 N   0  0  0  0  0  0  0  0  0  0  0  0
  -21.4033   12.9210  -18.5612 C   0  0  0  0  0  0  0  0  0  0  0  0
  -20.5142   12.9515  -19.7590 C   0  0  0  0  0  0  0  0  0  0  0  0
  -16.3142   10.8327  -25.9063 C   0  0  0  0  0  0  0  0  0  0  0  0
  -15.2883   11.4201  -26.6076 C   0  0  0  0  0  0  0  0  0  0  0  0
  -12.9718   12.5749  -28.1103 C   0  0  0  0  0  0  0  0  0  0  0  0
  -12.0066   13.2895  -28.7321 C   0  0  0  0  0  0  0  0  0  0  0  0
  -11.0809   12.8015  -29.6267 N   0  0  0  0  0  0  0  0  0  0  0  0
  1  2  2  0
  2  3  1  0
  3  4  1  0
  4  5  1  0
  5  6  2  0
  6  7  1  0
  7  8  2  0
  8  9  1  0
  9 10  1  0
 10 11  2  0
 11 12  1  0
 12 13  2  0
  3 14  2  0
 14 15  1  0
 15 16  1  0
 16 17  1  0
 17 18  2  0
 18 19  1  0
 19 20  2  0
 20 21  1  0
 21 22  1  0
 22 23  1  0
 23 24  1  0
 24 25  1  0
 25 26  1  0
 26 27  1  0
 27 28  1  0
 28 29  1  0
 29 30  1  0
 20 31  1  0
 31 32  2  0
 16 33  2  0
 33 34  1  0
 34 35  2  0
 35  1  1  0
 13  5  1  0
 34 14  1  0
 12  8  1  0
 32 17  1  0
 30 25  1  0
M  END
$$$$
CHEMBL80540_diffdock_7
     RDKit          3D

 35 40  0  0  0  0  0  0  0  0999 V2000
  -10.4864   14.1199  -29.9068 C   0  0  0  0  0  0  0  0  0  0  0  0
  -10.5862   15.4887  -29.7792 C   0  0  0  0  0  0  0  0  0  0  0  0
  -11.6257   15.9146  -28.9765 C   0  0  0  0  0  0  0  0  0  0  0  0
  -11.9234   17.2723  -28.6946 N   0  0  0  0  0  0  0  0  0  0  0  0
  -11.1562   18.3476  -29.1686 C   0  0  0  0  0  0  0  0  0  0  0  0
  -10.7592   19.3485  -28.3254 C   0  0  0  0  0  0  0  0  0  0  0  0
  -10.0012   20.4297  -28.7608 C   0  0  0  0  0  0  0  0  0  0  0  0
   -9.6501   20.4736  -30.0900 C   0  0  0  0  0  0  0  0  0  0  0  0
   -8.9438   21.3590  -30.7991 N   0  0  0  0  0  0  0  0  0  0  0  0
   -8.8769   20.9539  -32.0740 C   0  0  0  0  0  0  0  0  0  0  0  0
   -9.5565   19.7744  -32.2015 C   0  0  0  0  0  0  0  0  0  0  0  0
  -10.0492   19.4634  -30.9497 C   0  0  0  0  0  0  0  0  0  0  0  0
  -10.7993   18.4040  -30.4907 C   0  0  0  0  0  0  0  0  0  0  0  0
  -12.4739   14.9684  -28.3712 C   0  0  0  0  0  0  0  0  0  0  0  0
  -13.8282   15.0790  -27.3448 S   0  0  0  0  0  0  0  0  0  0  0  0
  -14.1682   13.4104  -27.1518 C   0  0  0  0  0  0  0  0  0  0  0  0
  -15.2423   12.7716  -26.3651 C   0  0  0  0  0  0  0  0  0  0  0  0
  -15.3776   11.4147  -26.3045 C   0  0  0  0  0  0  0  0  0  0  0  0
  -16.4291   10.8916  -25.5413 C   0  0  0  0  0  0  0  0  0  0  0  0
  -17.3205   11.6790  -24.8579 C   0  0  0  0  0  0  0  0  0  0  0  0
  -18.4500   11.1448  -24.0368 C   0  0  0  0  0  0  0  0  0  0  0  0
  -18.5028   11.9446  -22.8486 N   0  0  0  0  0  0  0  0  0  0  0  0
  -19.0149   11.2365  -21.6873 C   0  0  0  0  0  0  0  0  0  0  0  0
  -20.1911   11.9312  -21.0767 C   0  0  0  0  0  0  0  0  0  0  0  0
  -20.6790   11.1782  -19.9651 N   0  0  0  0  0  0  0  0  0  0  0  0
  -19.7515   10.1837  -19.4921 C   0  0  0  0  0  0  0  0  0  0  0  0
  -20.4613    9.3767  -18.4069 C   0  0  0  0  0  0  0  0  0  0  0  0
  -20.6233   10.2115  -17.2310 N   0  0  0  0  0  0  0  0  0  0  0  0
  -20.5337   11.6212  -17.5423 C   0  0  0  0  0  0  0  0  0  0  0  0
  -21.1192   11.9800  -18.8669 C   0  0  0  0  0  0  0  0  0  0  0  0
  -17.1655   13.0680  -24.9314 C   0  0  0  0  0  0  0  0  0  0  0  0
  -16.1279   13.5614  -25.6858 C   0  0  0  0  0  0  0  0  0  0  0  0
  -13.1998   12.8134  -27.9056 C   0  0  0  0  0  0  0  0  0  0  0  0
  -12.3227   13.6264  -28.5368 C   0  0  0  0  0  0  0  0  0  0  0  0
  -11.2786   13.2294  -29.3416 N   0  0  0  0  0  0  0  0  0  0  0  0
  1  2  2  0
  2  3  1  0
  3  4  1  0
  4  5  1  0
  5  6  2  0
  6  7  1  0
  7  8  2  0
  8  9  1  0
  9 10  1  0
 10 11  2  0
 11 12  1  0
 12 13  2  0
  3 14  2  0
 14 15  1  0
 15 16  1  0
 16 17  1  0
 17 18  2  0
 18 19  1  0
 19 20  2  0
 20 21  1  0
 21 22  1  0
 22 23  1  0
 23 24  1  0
 24 25  1  0
 25 26  1  0
 26 27  1  0
 27 28  1  0
 28 29  1  0
 29 30  1  0
 20 31  1  0
 31 32  2  0
 16 33  2  0
 33 34  1  0
 34 35  2  0
 35  1  1  0
 13  5  1  0
 34 14  1  0
 12  8  1  0
 32 17  1  0
 30 25  1  0
M  END
$$$$
CHEMBL80540_diffdock_8
     RDKit          3D

 35 40  0  0  0  0  0  0  0  0999 V2000
   -9.9474   14.2220  -29.1311 C   0  0  0  0  0  0  0  0  0  0  0  0
  -10.0910   15.5860  -28.9940 C   0  0  0  0  0  0  0  0  0  0  0  0
  -11.1926   15.9745  -28.2579 C   0  0  0  0  0  0  0  0  0  0  0  0
  -11.5436   17.3203  -27.9802 N   0  0  0  0  0  0  0  0  0  0  0  0
  -10.7884   18.4220  -28.4110 C   0  0  0  0  0  0  0  0  0  0  0  0
  -10.7132   19.5577  -27.6525 C   0  0  0  0  0  0  0  0  0  0  0  0
   -9.9771   20.6685  -28.0492 C   0  0  0  0  0  0  0  0  0  0  0  0
   -9.3097   20.6007  -29.2500 C   0  0  0  0  0  0  0  0  0  0  0  0
   -8.5360   21.4799  -29.8934 N   0  0  0  0  0  0  0  0  0  0  0  0
   -8.1130   20.9399  -31.0438 C   0  0  0  0  0  0  0  0  0  0  0  0
   -8.6229   19.6762  -31.1551 C   0  0  0  0  0  0  0  0  0  0  0  0
   -9.3818   19.4537  -30.0234 C   0  0  0  0  0  0  0  0  0  0  0  0
  -10.1183   18.3682  -29.6053 C   0  0  0  0  0  0  0  0  0  0  0  0
  -12.0546   14.9991  -27.7225 C   0  0  0  0  0  0  0  0  0  0  0  0
  -13.4770   15.0616  -26.7883 S   0  0  0  0  0  0  0  0  0  0  0  0
  -13.7857   13.3824  -26.6388 C   0  0  0  0  0  0  0  0  0  0  0  0
  -14.8932   12.7061  -25.9340 C   0  0  0  0  0  0  0  0  0  0  0  0
  -15.8780   13.4096  -25.3027 C   0  0  0  0  0  0  0  0  0  0  0  0
  -16.8872   12.6893  -24.6512 C   0  0  0  0  0  0  0  0  0  0  0  0
  -16.9270   11.3184  -24.6217 C   0  0  0  0  0  0  0  0  0  0  0  0
  -17.9931   10.5273  -23.9340 C   0  0  0  0  0  0  0  0  0  0  0  0
  -18.7552   11.4605  -23.1579 N   0  0  0  0  0  0  0  0  0  0  0  0
  -18.7849   11.1556  -21.7371 C   0  0  0  0  0  0  0  0  0  0  0  0
  -19.8677   10.1823  -21.3918 C   0  0  0  0  0  0  0  0  0  0  0  0
  -20.9793   10.8728  -20.8190 N   0  0  0  0  0  0  0  0  0  0  0  0
  -21.2497   10.4971  -19.4556 C   0  0  0  0  0  0  0  0  0  0  0  0
  -22.5346   11.2062  -19.0326 C   0  0  0  0  0  0  0  0  0  0  0  0
  -22.2656   12.6260  -18.8993 N   0  0  0  0  0  0  0  0  0  0  0  0
  -21.0841   13.0314  -19.6287 C   0  0  0  0  0  0  0  0  0  0  0  0
  -20.8917   12.2962  -20.9127 C   0  0  0  0  0  0  0  0  0  0  0  0
  -15.9091   10.6144  -25.2750 C   0  0  0  0  0  0  0  0  0  0  0  0
  -14.9279   11.3395  -25.9078 C   0  0  0  0  0  0  0  0  0  0  0  0
  -12.7539   12.8203  -27.3330 C   0  0  0  0  0  0  0  0  0  0  0  0
  -11.8578   13.6637  -27.8938 C   0  0  0  0  0  0  0  0  0  0  0  0
  -10.7522   13.3043  -28.6313 N   0  0  0  0  0  0  0  0  0  0  0  0
  1  2  2  0
  2  3  1  0
  3  4  1  0
  4  5  1  0
  5  6  2  0
  6  7  1  0
  7  8  2  0
  8  9  1  0
  9 10  1  0
 10 11  2  0
 11 12  1  0
 12 13  2  0
  3 14  2  0
 14 15  1  0
 15 16  1  0
 16 17  1  0
 17 18  2  0
 18 19  1  0
 19 20  2  0
 20 21  1  0
 21 22  1  0
 22 23  1  0
 23 24  1  0
 24 25  1  0
 25 26  1  0
 26 27  1  0
 27 28  1  0
 28 29  1  0
 29 30  1  0
 20 31  1  0
 31 32  2  0
 16 33  2  0
 33 34  1  0
 34 35  2  0
 35  1  1  0
 13  5  1  0
 34 14  1  0
 12  8  1  0
 32 17  1  0
 30 25  1  0
M  END
$$$$
CHEMBL80540_diffdock_9
     RDKit          3D

 35 40  0  0  0  0  0  0  0  0999 V2000
  -10.2363   13.9308  -29.8505 C   0  0  0  0  0  0  0  0  0  0  0  0
  -10.2331   15.3080  -29.7941 C   0  0  0  0  0  0  0  0  0  0  0  0
  -11.2633   15.8530  -29.0539 C   0  0  0  0  0  0  0  0  0  0  0  0
  -11.4635   17.2423  -28.8504 N   0  0  0  0  0  0  0  0  0  0  0  0
  -10.5453   18.2240  -29.2540 C   0  0  0  0  0  0  0  0  0  0  0  0
  -10.4022   19.3825  -28.5414 C   0  0  0  0  0  0  0  0  0  0  0  0
   -9.5049   20.3773  -28.9132 C   0  0  0  0  0  0  0  0  0  0  0  0
   -8.7453   20.1678  -30.0407 C   0  0  0  0  0  0  0  0  0  0  0  0
   -7.8166   20.9152  -30.6443 N   0  0  0  0  0  0  0  0  0  0  0  0
   -7.3602   20.2684  -31.7248 C   0  0  0  0  0  0  0  0  0  0  0  0
   -8.0067   19.0683  -31.8300 C   0  0  0  0  0  0  0  0  0  0  0  0
   -8.8855   18.9968  -30.7675 C   0  0  0  0  0  0  0  0  0  0  0  0
   -9.7821   18.0283  -30.3754 C   0  0  0  0  0  0  0  0  0  0  0  0
  -12.2034   15.0070  -28.4361 C   0  0  0  0  0  0  0  0  0  0  0  0
  -13.5797   15.2738  -27.4693 S   0  0  0  0  0  0  0  0  0  0  0  0
  -14.0555   13.6482  -27.2080 C   0  0  0  0  0  0  0  0  0  0  0  0
  -15.2029   13.1350  -26.4329 C   0  0  0  0  0  0  0  0  0  0  0  0
  -15.4521   11.7977  -26.3201 C   0  0  0  0  0  0  0  0  0  0  0  0
  -16.5667   11.3966  -25.5726 C   0  0  0  0  0  0  0  0  0  0  0  0
  -17.4105   12.2839  -24.9542 C   0  0  0  0  0  0  0  0  0  0  0  0
  -18.6054   11.8808  -24.1511 C   0  0  0  0  0  0  0  0  0  0  0  0
  -18.5189   10.4607  -23.9781 N   0  0  0  0  0  0  0  0  0  0  0  0
  -18.2321   10.0525  -22.6130 C   0  0  0  0  0  0  0  0  0  0  0  0
  -19.4429   10.1240  -21.7369 C   0  0  0  0  0  0  0  0  0  0  0  0
  -19.3343    9.1730  -20.6765 N   0  0  0  0  0  0  0  0  0  0  0  0
  -18.4315    9.5779  -19.6305 C   0  0  0  0  0  0  0  0  0  0  0  0
  -18.3150    8.4118  -18.6510 C   0  0  0  0  0  0  0  0  0  0  0  0
  -19.5654    8.2804  -17.9264 N   0  0  0  0  0  0  0  0  0  0  0  0
  -20.6693    8.9087  -18.6185 C   0  0  0  0  0  0  0  0  0  0  0  0
  -20.5877    8.7938  -20.1039 C   0  0  0  0  0  0  0  0  0  0  0  0
  -17.1385   13.6509  -25.0805 C   0  0  0  0  0  0  0  0  0  0  0  0
  -16.0406   14.0238  -25.8185 C   0  0  0  0  0  0  0  0  0  0  0  0
  -13.1112   12.9407  -27.8938 C   0  0  0  0  0  0  0  0  0  0  0  0
  -12.1519   13.6506  -28.5298 C   0  0  0  0  0  0  0  0  0  0  0  0
  -11.1148   13.1339  -29.2733 N   0  0  0  0  0  0  0  0  0  0  0  0
  1  2  2  0
  2  3  1  0
  3  4  1  0
  4  5  1  0
  5  6  2  0
  6  7  1  0
  7  8  2  0
  8  9  1  0
  9 10  1  0
 10 11  2  0
 11 12  1  0
 12 13  2  0
  3 14  2  0
 14 15  1  0
 15 16  1  0
 16 17  1  0
 17 18  2  0
 18 19  1  0
 19 20  2  0
 20 21  1  0
 21 22  1  0
 22 23  1  0
 23 24  1  0
 24 25  1  0
 25 26  1  0
 26 27  1  0
 27 28  1  0
 28 29  1  0
 29 30  1  0
 20 31  1  0
 31 32  2  0
 16 33  2  0
 33 34  1  0
 34 35  2  0
 35  1  1  0
 13  5  1  0
 34 14  1  0
 12  8  1  0
 32 17  1  0
 30 25  1  0
M  END
$$$$
CHEMBL80540_diffdock_10
     RDKit          3D

 35 40  0  0  0  0  0  0  0  0999 V2000
  -10.7946   14.2686  -30.4092 C   0  0  0  0  0  0  0  0  0  0  0  0
  -10.7386   15.6278  -30.1868 C   0  0  0  0  0  0  0  0  0  0  0  0
  -11.6051   16.0849  -29.2139 C   0  0  0  0  0  0  0  0  0  0  0  0
  -11.7231   17.4394  -28.8103 N   0  0  0  0  0  0  0  0  0  0  0  0
  -10.9191   18.4714  -29.3186 C   0  0  0  0  0  0  0  0  0  0  0  0
   -9.7324   18.1923  -29.9386 C   0  0  0  0  0  0  0  0  0  0  0  0
   -8.9098   19.1891  -30.4514 C   0  0  0  0  0  0  0  0  0  0  0  0
   -9.3237   20.4941  -30.3188 C   0  0  0  0  0  0  0  0  0  0  0  0
   -8.7702   21.6501  -30.6971 N   0  0  0  0  0  0  0  0  0  0  0  0
   -9.5689   22.6631  -30.3366 C   0  0  0  0  0  0  0  0  0  0  0  0
  -10.6719   22.1566  -29.7070 C   0  0  0  0  0  0  0  0  0  0  0  0
  -10.5243   20.7840  -29.6917 C   0  0  0  0  0  0  0  0  0  0  0  0
  -11.3193   19.7762  -29.1935 C   0  0  0  0  0  0  0  0  0  0  0  0
  -12.4477   15.1765  -28.5461 C   0  0  0  0  0  0  0  0  0  0  0  0
  -13.6236   15.3323  -27.3242 S   0  0  0  0  0  0  0  0  0  0  0  0
  -14.0964   13.6911  -27.1822 C   0  0  0  0  0  0  0  0  0  0  0  0
  -15.1050   13.0950  -26.2833 C   0  0  0  0  0  0  0  0  0  0  0  0
  -15.4044   11.7639  -26.3229 C   0  0  0  0  0  0  0  0  0  0  0  0
  -16.3796   11.2820  -25.4406 C   0  0  0  0  0  0  0  0  0  0  0  0
  -17.0403   12.0849  -24.5458 C   0  0  0  0  0  0  0  0  0  0  0  0
  -18.0839   11.5945  -23.5942 C   0  0  0  0  0  0  0  0  0  0  0  0
  -19.1952   12.4919  -23.7116 N   0  0  0  0  0  0  0  0  0  0  0  0
  -20.3626   12.0829  -22.9485 C   0  0  0  0  0  0  0  0  0  0  0  0
  -21.6400   12.5137  -23.5976 C   0  0  0  0  0  0  0  0  0  0  0  0
  -22.5878   12.8987  -22.6006 N   0  0  0  0  0  0  0  0  0  0  0  0
  -23.7007   11.9926  -22.4840 C   0  0  0  0  0  0  0  0  0  0  0  0
  -24.6857   12.6045  -21.4899 C   0  0  0  0  0  0  0  0  0  0  0  0
  -24.1115   12.5388  -20.1588 N   0  0  0  0  0  0  0  0  0  0  0  0
  -22.6733   12.3868  -20.1885 C   0  0  0  0  0  0  0  0  0  0  0  0
  -22.0169   13.1209  -21.3094 C   0  0  0  0  0  0  0  0  0  0  0  0
  -16.7195   13.4468  -24.5192 C   0  0  0  0  0  0  0  0  0  0  0  0
  -15.7604   13.9000  -25.3933 C   0  0  0  0  0  0  0  0  0  0  0  0
  -13.3100   13.0668  -28.1064 C   0  0  0  0  0  0  0  0  0  0  0  0
  -12.4558   13.8422  -28.8120 C   0  0  0  0  0  0  0  0  0  0  0  0
  -11.5822   13.4136  -29.7859 N   0  0  0  0  0  0  0  0  0  0  0  0
  1  2  2  0
  2  3  1  0
  3  4  1  0
  4  5  1  0
  5  6  2  0
  6  7  1  0
  7  8  2  0
  8  9  1  0
  9 10  1  0
 10 11  2  0
 11 12  1  0
 12 13  2  0
  3 14  2  0
 14 15  1  0
 15 16  1  0
 16 17  1  0
 17 18  2  0
 18 19  1  0
 19 20  2  0
 20 21  1  0
 21 22  1  0
 22 23  1  0
 23 24  1  0
 24 25  1  0
 25 26  1  0
 26 27  1  0
 27 28  1  0
 28 29  1  0
 29 30  1  0
 20 31  1  0
 31 32  2  0
 16 33  2  0
 33 34  1  0
 34 35  2  0
 35  1  1  0
 13  5  1  0
 34 14  1  0
 12  8  1  0
 32 17  1  0
 30 25  1  0
M  END
$$$$
CHEMBL4443188_diffdock_1
     RDKit          3D

 34 36  0  0  0  0  0  0  0  0999 V2000
  -18.2089   11.6142  -23.2688 C   0  0  0  0  0  0  0  0  0  0  0  0
  -17.4813   12.0532  -24.3173 O   0  0  0  0  0  0  0  0  0  0  0  0
  -16.6958   11.2138  -24.9804 C   0  0  0  0  0  0  0  0  0  0  0  0
  -15.9811   11.6950  -26.2299 C   0  0  2  0  0  0  0  0  0  0  0  0
  -14.8857   10.6901  -26.6446 C   0  0  0  0  0  0  0  0  0  0  0  0
  -15.2849   12.8486  -25.8429 O   0  0  0  0  0  0  0  0  0  0  0  0
  -14.4140   13.5553  -26.5755 C   0  0  0  0  0  0  0  0  0  0  0  0
  -13.5874   12.8802  -27.4639 C   0  0  0  0  0  0  0  0  0  0  0  0
  -12.6820   13.5601  -28.2418 C   0  0  0  0  0  0  0  0  0  0  0  0
  -11.8931   12.8619  -29.0927 N   0  0  0  0  0  0  0  0  0  0  0  0
  -11.0038   13.5169  -29.8541 C   0  0  0  0  0  0  0  0  0  0  0  0
  -10.9451   14.8369  -29.7301 N   0  0  0  0  0  0  0  0  0  0  0  0
  -11.6898   15.6018  -28.9129 C   0  0  0  0  0  0  0  0  0  0  0  0
  -11.5372   17.0052  -28.8740 N   0  0  0  0  0  0  0  0  0  0  0  0
  -10.7884   17.7269  -29.8382 C   0  0  0  0  0  0  0  0  0  0  0  0
   -9.9733   18.7747  -29.3758 C   0  0  0  0  0  0  0  0  0  0  0  0
   -9.1946   19.5177  -30.2229 C   0  0  0  0  0  0  0  0  0  0  0  0
   -9.1749   19.2701  -31.5772 C   0  0  0  0  0  0  0  0  0  0  0  0
   -8.3869   20.0326  -32.3833 F   0  0  0  0  0  0  0  0  0  0  0  0
   -9.9606   18.2540  -32.0525 C   0  0  0  0  0  0  0  0  0  0  0  0
   -9.9636   17.9060  -33.7624 Cl  0  0  0  0  0  0  0  0  0  0  0  0
  -10.7555   17.4959  -31.1849 C   0  0  0  0  0  0  0  0  0  0  0  0
  -12.6075   14.9323  -28.1251 C   0  0  0  0  0  0  0  0  0  0  0  0
  -13.4126   15.6133  -27.2552 C   0  0  0  0  0  0  0  0  0  0  0  0
  -14.3476   14.9162  -26.4498 C   0  0  0  0  0  0  0  0  0  0  0  0
  -15.1528   15.6845  -25.6006 N   0  0  0  0  0  0  0  0  0  0  0  0
  -14.8557   16.8418  -24.8651 C   0  0  0  0  0  0  0  0  0  0  0  0
  -14.0570   17.6944  -25.3355 O   0  0  0  0  0  0  0  0  0  0  0  0
  -15.4511   17.0910  -23.5630 C   0  0  0  0  0  0  0  0  0  0  0  0
  -15.4753   18.2724  -22.9992 C   0  0  0  0  0  0  0  0  0  0  0  0
  -16.7964   18.9857  -22.7740 C   0  0  0  0  0  0  0  0  0  0  0  0
  -16.7356   19.8468  -21.6310 N   0  0  0  0  0  4  0  0  0  0  0  0
  -18.0119   20.5256  -21.3781 C   0  0  0  0  0  0  0  0  0  0  0  0
  -16.3674   19.0423  -20.4643 C   0  0  0  0  0  0  0  0  0  0  0  0
  1  2  1  0
  2  3  1  0
  3  4  1  0
  4  5  1  1
  4  6  1  0
  6  7  1  0
  7  8  2  0
  8  9  1  0
  9 10  2  0
 10 11  1  0
 11 12  2  0
 12 13  1  0
 13 14  1  0
 14 15  1  0
 15 16  2  0
 16 17  1  0
 17 18  2  0
 18 19  1  0
 18 20  1  0
 20 21  1  0
 20 22  2  0
 13 23  2  0
 23 24  1  0
 24 25  2  0
 25 26  1  0
 26 27  1  0
 27 28  2  0
 27 29  1  0
 29 30  2  0
 30 31  1  0
 31 32  1  0
 32 33  1  0
 32 34  1  0
 25  7  1  0
 23  9  1  0
 22 15  1  0
M  CHG  1  32   1
M  END
$$$$
CHEMBL4443188_diffdock_2
     RDKit          3D

 34 36  0  0  0  0  0  0  0  0999 V2000
  -19.1294   11.5726  -25.7816 C   0  0  0  0  0  0  0  0  0  0  0  0
  -17.9398   11.6314  -25.1470 O   0  0  0  0  0  0  0  0  0  0  0  0
  -17.0253   10.6933  -25.3591 C   0  0  0  0  0  0  0  0  0  0  0  0
  -15.8127   11.0172  -26.2126 C   0  0  2  0  0  0  0  0  0  0  0  0
  -14.5858   10.2135  -25.7323 C   0  0  0  0  0  0  0  0  0  0  0  0
  -15.5015   12.3545  -25.9297 O   0  0  0  0  0  0  0  0  0  0  0  0
  -14.6410   13.1440  -26.5860 C   0  0  0  0  0  0  0  0  0  0  0  0
  -13.7863   12.5699  -27.5178 C   0  0  0  0  0  0  0  0  0  0  0  0
  -12.8901   13.3377  -28.2210 C   0  0  0  0  0  0  0  0  0  0  0  0
  -12.0729   12.7363  -29.1179 N   0  0  0  0  0  0  0  0  0  0  0  0
  -11.1923   13.4774  -29.8071 C   0  0  0  0  0  0  0  0  0  0  0  0
  -11.1701   14.7827  -29.5685 N   0  0  0  0  0  0  0  0  0  0  0  0
  -11.9445   15.4545  -28.6988 C   0  0  0  0  0  0  0  0  0  0  0  0
  -11.8297   16.8526  -28.5363 N   0  0  0  0  0  0  0  0  0  0  0  0
  -11.0036   17.6596  -29.3596 C   0  0  0  0  0  0  0  0  0  0  0  0
  -10.4285   18.8036  -28.7793 C   0  0  0  0  0  0  0  0  0  0  0  0
   -9.5986   19.6360  -29.4823 C   0  0  0  0  0  0  0  0  0  0  0  0
   -9.2875   19.3881  -30.8005 C   0  0  0  0  0  0  0  0  0  0  0  0
   -8.4589   20.2411  -31.4622 F   0  0  0  0  0  0  0  0  0  0  0  0
   -9.8355   18.2793  -31.3887 C   0  0  0  0  0  0  0  0  0  0  0  0
   -9.4655   17.9276  -33.0574 Cl  0  0  0  0  0  0  0  0  0  0  0  0
  -10.6833   17.4299  -30.6682 C   0  0  0  0  0  0  0  0  0  0  0  0
  -12.8534   14.6959  -27.9850 C   0  0  0  0  0  0  0  0  0  0  0  0
  -13.6866   15.2781  -27.0708 C   0  0  0  0  0  0  0  0  0  0  0  0
  -14.6123   14.4902  -26.3420 C   0  0  0  0  0  0  0  0  0  0  0  0
  -15.4476   15.1610  -25.4410 N   0  0  0  0  0  0  0  0  0  0  0  0
  -15.4560   16.5037  -25.0340 C   0  0  0  0  0  0  0  0  0  0  0  0
  -14.9238   17.3820  -25.7630 O   0  0  0  0  0  0  0  0  0  0  0  0
  -16.0701   16.9171  -23.7834 C   0  0  0  0  0  0  0  0  0  0  0  0
  -16.0673   18.1550  -23.3572 C   0  0  0  0  0  0  0  0  0  0  0  0
  -16.6498   18.4975  -21.9977 C   0  0  0  0  0  0  0  0  0  0  0  0
  -16.6398   19.9112  -21.7675 N   0  0  0  0  0  4  0  0  0  0  0  0
  -17.2211   20.2667  -20.4677 C   0  0  0  0  0  0  0  0  0  0  0  0
  -15.2544   20.3809  -21.8310 C   0  0  0  0  0  0  0  0  0  0  0  0
  1  2  1  0
  2  3  1  0
  3  4  1  0
  4  5  1  1
  4  6  1  0
  6  7  1  0
  7  8  2  0
  8  9  1  0
  9 10  2  0
 10 11  1  0
 11 12  2  0
 12 13  1  0
 13 14  1  0
 14 15  1  0
 15 16  2  0
 16 17  1  0
 17 18  2  0
 18 19  1  0
 18 20  1  0
 20 21  1  0
 20 22  2  0
 13 23  2  0
 23 24  1  0
 24 25  2  0
 25 26  1  0
 26 27  1  0
 27 28  2  0
 27 29  1  0
 29 30  2  0
 30 31  1  0
 31 32  1  0
 32 33  1  0
 32 34  1  0
 25  7  1  0
 23  9  1  0
 22 15  1  0
M  CHG  1  32   1
M  END
$$$$
CHEMBL4443188_diffdock_3
     RDKit          3D

 34 36  0  0  0  0  0  0  0  0999 V2000
  -18.9288   12.6600  -24.9280 C   0  0  0  0  0  0  0  0  0  0  0  0
  -17.7022   12.5818  -25.4854 O   0  0  0  0  0  0  0  0  0  0  0  0
  -17.0456   11.4285  -25.4902 C   0  0  0  0  0  0  0  0  0  0  0  0
  -15.7202   11.3312  -26.2234 C   0  0  2  0  0  0  0  0  0  0  0  0
  -14.9186   10.1093  -25.7272 C   0  0  0  0  0  0  0  0  0  0  0  0
  -14.9776   12.4442  -25.8050 O   0  0  0  0  0  0  0  0  0  0  0  0
  -14.1591   13.2002  -26.5487 C   0  0  0  0  0  0  0  0  0  0  0  0
  -13.3092   12.5744  -27.4512 C   0  0  0  0  0  0  0  0  0  0  0  0
  -12.4555   13.3058  -28.2407 C   0  0  0  0  0  0  0  0  0  0  0  0
  -11.6414   12.6547  -29.1051 N   0  0  0  0  0  0  0  0  0  0  0  0
  -10.8020   13.3602  -29.8780 C   0  0  0  0  0  0  0  0  0  0  0  0
  -10.8160   14.6812  -29.7515 N   0  0  0  0  0  0  0  0  0  0  0  0
  -11.5903   15.4014  -28.9213 C   0  0  0  0  0  0  0  0  0  0  0  0
  -11.5165   16.8111  -28.8809 N   0  0  0  0  0  0  0  0  0  0  0  0
  -10.7466   17.5699  -29.7990 C   0  0  0  0  0  0  0  0  0  0  0  0
  -10.1158   18.7291  -29.3146 C   0  0  0  0  0  0  0  0  0  0  0  0
   -9.3326   19.5183  -30.1144 C   0  0  0  0  0  0  0  0  0  0  0  0
   -9.1261   19.2096  -31.4402 C   0  0  0  0  0  0  0  0  0  0  0  0
   -8.3408   20.0213  -32.1996 F   0  0  0  0  0  0  0  0  0  0  0  0
   -9.7301   18.0849  -31.9361 C   0  0  0  0  0  0  0  0  0  0  0  0
   -9.4928   17.6568  -33.6111 Cl  0  0  0  0  0  0  0  0  0  0  0  0
  -10.5300   17.2797  -31.1168 C   0  0  0  0  0  0  0  0  0  0  0  0
  -12.4568   14.6797  -28.1216 C   0  0  0  0  0  0  0  0  0  0  0  0
  -13.2858   15.3127  -27.2379 C   0  0  0  0  0  0  0  0  0  0  0  0
  -14.1678   14.5625  -26.4204 C   0  0  0  0  0  0  0  0  0  0  0  0
  -15.0021   15.2826  -25.5573 N   0  0  0  0  0  0  0  0  0  0  0  0
  -15.0346   16.6522  -25.2548 C   0  0  0  0  0  0  0  0  0  0  0  0
  -14.5864   17.4872  -26.0844 O   0  0  0  0  0  0  0  0  0  0  0  0
  -15.5792   17.1428  -23.9999 C   0  0  0  0  0  0  0  0  0  0  0  0
  -16.7660   16.8143  -23.5553 C   0  0  0  0  0  0  0  0  0  0  0  0
  -17.1923   17.2049  -22.1516 C   0  0  0  0  0  0  0  0  0  0  0  0
  -17.9272   18.4344  -22.1531 N   0  0  0  0  0  4  0  0  0  0  0  0
  -19.1387   18.3565  -22.9775 C   0  0  0  0  0  0  0  0  0  0  0  0
  -18.2923   18.7573  -20.7724 C   0  0  0  0  0  0  0  0  0  0  0  0
  1  2  1  0
  2  3  1  0
  3  4  1  0
  4  5  1  1
  4  6  1  0
  6  7  1  0
  7  8  2  0
  8  9  1  0
  9 10  2  0
 10 11  1  0
 11 12  2  0
 12 13  1  0
 13 14  1  0
 14 15  1  0
 15 16  2  0
 16 17  1  0
 17 18  2  0
 18 19  1  0
 18 20  1  0
 20 21  1  0
 20 22  2  0
 13 23  2  0
 23 24  1  0
 24 25  2  0
 25 26  1  0
 26 27  1  0
 27 28  2  0
 27 29  1  0
 29 30  2  0
 30 31  1  0
 31 32  1  0
 32 33  1  0
 32 34  1  0
 25  7  1  0
 23  9  1  0
 22 15  1  0
M  CHG  1  32   1
M  END
$$$$
CHEMBL4443188_diffdock_4
     RDKit          3D

 34 36  0  0  0  0  0  0  0  0999 V2000
  -19.3672   12.1619  -25.1633 C   0  0  0  0  0  0  0  0  0  0  0  0
  -18.1259   12.3303  -25.6654 O   0  0  0  0  0  0  0  0  0  0  0  0
  -17.3605   11.2754  -25.9159 C   0  0  0  0  0  0  0  0  0  0  0  0
  -16.0245   11.4745  -26.6082 C   0  0  2  0  0  0  0  0  0  0  0  0
  -14.9774   10.4864  -26.0524 C   0  0  0  0  0  0  0  0  0  0  0  0
  -15.5773   12.7400  -26.2033 O   0  0  0  0  0  0  0  0  0  0  0  0
  -14.6285   13.4888  -26.7808 C   0  0  0  0  0  0  0  0  0  0  0  0
  -13.7843   12.8957  -27.7103 C   0  0  0  0  0  0  0  0  0  0  0  0
  -12.7997   13.6223  -28.3346 C   0  0  0  0  0  0  0  0  0  0  0  0
  -11.9966   13.0033  -29.2322 N   0  0  0  0  0  0  0  0  0  0  0  0
  -11.0303   13.7040  -29.8446 C   0  0  0  0  0  0  0  0  0  0  0  0
  -10.9124   14.9884  -29.5322 N   0  0  0  0  0  0  0  0  0  0  0  0
  -11.6661   15.6753  -28.6561 C   0  0  0  0  0  0  0  0  0  0  0  0
  -11.4453   17.0484  -28.4108 N   0  0  0  0  0  0  0  0  0  0  0  0
  -10.7044   17.8796  -29.2893 C   0  0  0  0  0  0  0  0  0  0  0  0
   -9.9492   18.9184  -28.7176 C   0  0  0  0  0  0  0  0  0  0  0  0
   -9.1826   19.7622  -29.4766 C   0  0  0  0  0  0  0  0  0  0  0  0
   -9.1164   19.6302  -30.8456 C   0  0  0  0  0  0  0  0  0  0  0  0
   -8.3424   20.4904  -31.5620 F   0  0  0  0  0  0  0  0  0  0  0  0
   -9.8433   18.6254  -31.4266 C   0  0  0  0  0  0  0  0  0  0  0  0
   -9.7860   18.4225  -33.1589 Cl  0  0  0  0  0  0  0  0  0  0  0  0
  -10.6260   17.7642  -30.6489 C   0  0  0  0  0  0  0  0  0  0  0  0
  -12.6630   14.9583  -28.0212 C   0  0  0  0  0  0  0  0  0  0  0  0
  -13.4844   15.5586  -27.1080 C   0  0  0  0  0  0  0  0  0  0  0  0
  -14.5011   14.8130  -26.4605 C   0  0  0  0  0  0  0  0  0  0  0  0
  -15.3168   15.5024  -25.5555 N   0  0  0  0  0  0  0  0  0  0  0  0
  -15.1295   16.7396  -24.9210 C   0  0  0  0  0  0  0  0  0  0  0  0
  -14.4359   17.6305  -25.4789 O   0  0  0  0  0  0  0  0  0  0  0  0
  -15.7211   17.0289  -23.6255 C   0  0  0  0  0  0  0  0  0  0  0  0
  -15.5961   18.1836  -23.0211 C   0  0  0  0  0  0  0  0  0  0  0  0
  -16.2234   18.4048  -21.6564 C   0  0  0  0  0  0  0  0  0  0  0  0
  -15.6765   19.5617  -21.0127 N   0  0  0  0  0  4  0  0  0  0  0  0
  -14.4456   20.0285  -21.6612 C   0  0  0  0  0  0  0  0  0  0  0  0
  -16.6814   20.6262  -21.0419 C   0  0  0  0  0  0  0  0  0  0  0  0
  1  2  1  0
  2  3  1  0
  3  4  1  0
  4  5  1  1
  4  6  1  0
  6  7  1  0
  7  8  2  0
  8  9  1  0
  9 10  2  0
 10 11  1  0
 11 12  2  0
 12 13  1  0
 13 14  1  0
 14 15  1  0
 15 16  2  0
 16 17  1  0
 17 18  2  0
 18 19  1  0
 18 20  1  0
 20 21  1  0
 20 22  2  0
 13 23  2  0
 23 24  1  0
 24 25  2  0
 25 26  1  0
 26 27  1  0
 27 28  2  0
 27 29  1  0
 29 30  2  0
 30 31  1  0
 31 32  1  0
 32 33  1  0
 32 34  1  0
 25  7  1  0
 23  9  1  0
 22 15  1  0
M  CHG  1  32   1
M  END
$$$$
CHEMBL4443188_diffdock_5
     RDKit          3D

 34 36  0  0  0  0  0  0  0  0999 V2000
  -19.6722   11.6076  -26.0504 C   0  0  0  0  0  0  0  0  0  0  0  0
  -18.4208   11.7528  -26.5345 O   0  0  0  0  0  0  0  0  0  0  0  0
  -17.3899   11.2304  -25.8821 C   0  0  0  0  0  0  0  0  0  0  0  0
  -15.9946   11.3718  -26.4623 C   0  0  2  0  0  0  0  0  0  0  0  0
  -14.9486   10.7640  -25.5040 C   0  0  0  0  0  0  0  0  0  0  0  0
  -15.7266   12.7479  -26.4633 O   0  0  0  0  0  0  0  0  0  0  0  0
  -14.6795   13.3706  -27.0204 C   0  0  0  0  0  0  0  0  0  0  0  0
  -13.9827   12.7269  -28.0346 C   0  0  0  0  0  0  0  0  0  0  0  0
  -12.9058   13.3259  -28.6417 C   0  0  0  0  0  0  0  0  0  0  0  0
  -12.2530   12.6610  -29.6243 N   0  0  0  0  0  0  0  0  0  0  0  0
  -11.1982   13.2367  -30.2209 C   0  0  0  0  0  0  0  0  0  0  0  0
  -10.8463   14.4480  -29.8085 N   0  0  0  0  0  0  0  0  0  0  0  0
  -11.4392   15.1730  -28.8440 C   0  0  0  0  0  0  0  0  0  0  0  0
  -10.9725   16.4596  -28.4960 N   0  0  0  0  0  0  0  0  0  0  0  0
  -10.0136   17.1666  -29.2655 C   0  0  0  0  0  0  0  0  0  0  0  0
   -9.2675   18.1648  -28.6150 C   0  0  0  0  0  0  0  0  0  0  0  0
   -8.3025   18.8891  -29.2630 C   0  0  0  0  0  0  0  0  0  0  0  0
   -8.0171   18.6708  -30.5922 C   0  0  0  0  0  0  0  0  0  0  0  0
   -7.0506   19.4133  -31.1977 F   0  0  0  0  0  0  0  0  0  0  0  0
   -8.7306   17.7033  -31.2483 C   0  0  0  0  0  0  0  0  0  0  0  0
   -8.3990   17.3936  -32.9334 Cl  0  0  0  0  0  0  0  0  0  0  0  0
   -9.7163   16.9641  -30.5840 C   0  0  0  0  0  0  0  0  0  0  0  0
  -12.5263   14.5846  -28.2249 C   0  0  0  0  0  0  0  0  0  0  0  0
  -13.1999   15.2329  -27.2275 C   0  0  0  0  0  0  0  0  0  0  0  0
  -14.3110   14.6187  -26.5974 C   0  0  0  0  0  0  0  0  0  0  0  0
  -14.9635   15.3541  -25.6009 N   0  0  0  0  0  0  0  0  0  0  0  0
  -15.2432   16.7265  -25.5180 C   0  0  0  0  0  0  0  0  0  0  0  0
  -14.9484   17.4845  -26.4795 O   0  0  0  0  0  0  0  0  0  0  0  0
  -15.8730   17.3062  -24.3435 C   0  0  0  0  0  0  0  0  0  0  0  0
  -15.8286   18.5842  -24.0624 C   0  0  0  0  0  0  0  0  0  0  0  0
  -16.4078   19.1012  -22.7578 C   0  0  0  0  0  0  0  0  0  0  0  0
  -16.1067   20.4885  -22.5674 N   0  0  0  0  0  4  0  0  0  0  0  0
  -16.7533   21.3404  -23.5723 C   0  0  0  0  0  0  0  0  0  0  0  0
  -16.5547   20.8802  -21.2295 C   0  0  0  0  0  0  0  0  0  0  0  0
  1  2  1  0
  2  3  1  0
  3  4  1  0
  4  5  1  1
  4  6  1  0
  6  7  1  0
  7  8  2  0
  8  9  1  0
  9 10  2  0
 10 11  1  0
 11 12  2  0
 12 13  1  0
 13 14  1  0
 14 15  1  0
 15 16  2  0
 16 17  1  0
 17 18  2  0
 18 19  1  0
 18 20  1  0
 20 21  1  0
 20 22  2  0
 13 23  2  0
 23 24  1  0
 24 25  2  0
 25 26  1  0
 26 27  1  0
 27 28  2  0
 27 29  1  0
 29 30  2  0
 30 31  1  0
 31 32  1  0
 32 33  1  0
 32 34  1  0
 25  7  1  0
 23  9  1  0
 22 15  1  0
M  CHG  1  32   1
M  END
$$$$
CHEMBL4443188_diffdock_6
     RDKit          3D

 34 36  0  0  0  0  0  0  0  0999 V2000
  -18.7784   12.5691  -25.3419 C   0  0  0  0  0  0  0  0  0  0  0  0
  -17.6396   11.9553  -24.9576 O   0  0  0  0  0  0  0  0  0  0  0  0
  -17.0653   11.0602  -25.7516 C   0  0  0  0  0  0  0  0  0  0  0  0
  -15.6242   11.2649  -26.1819 C   0  0  2  0  0  0  0  0  0  0  0  0
  -14.6609   10.6259  -25.1594 C   0  0  0  0  0  0  0  0  0  0  0  0
  -15.3950   12.6442  -26.0807 O   0  0  0  0  0  0  0  0  0  0  0  0
  -14.4549   13.3594  -26.7126 C   0  0  0  0  0  0  0  0  0  0  0  0
  -13.6908   12.7390  -27.6922 C   0  0  0  0  0  0  0  0  0  0  0  0
  -12.7186   13.4309  -28.3729 C   0  0  0  0  0  0  0  0  0  0  0  0
  -11.9945   12.7861  -29.3183 N   0  0  0  0  0  0  0  0  0  0  0  0
  -11.0408   13.4527  -29.9860 C   0  0  0  0  0  0  0  0  0  0  0  0
  -10.8561   14.7304  -29.6785 N   0  0  0  0  0  0  0  0  0  0  0  0
  -11.5296   15.4413  -28.7574 C   0  0  0  0  0  0  0  0  0  0  0  0
  -11.2429   16.8041  -28.5230 N   0  0  0  0  0  0  0  0  0  0  0  0
  -10.3492   17.5542  -29.3293 C   0  0  0  0  0  0  0  0  0  0  0  0
   -9.5519   18.5193  -28.6895 C   0  0  0  0  0  0  0  0  0  0  0  0
   -8.6422   19.2802  -29.3745 C   0  0  0  0  0  0  0  0  0  0  0  0
   -8.4659   19.1334  -30.7321 C   0  0  0  0  0  0  0  0  0  0  0  0
   -7.5511   19.9103  -31.3739 F   0  0  0  0  0  0  0  0  0  0  0  0
   -9.2311   18.1994  -31.3785 C   0  0  0  0  0  0  0  0  0  0  0  0
   -9.0377   17.9803  -33.0989 Cl  0  0  0  0  0  0  0  0  0  0  0  0
  -10.1601   17.4227  -30.6764 C   0  0  0  0  0  0  0  0  0  0  0  0
  -12.5131   14.7595  -28.0654 C   0  0  0  0  0  0  0  0  0  0  0  0
  -13.2552   15.3862  -27.1034 C   0  0  0  0  0  0  0  0  0  0  0  0
  -14.2587   14.6765  -26.3977 C   0  0  0  0  0  0  0  0  0  0  0  0
  -14.9923   15.3921  -25.4440 N   0  0  0  0  0  0  0  0  0  0  0  0
  -15.4641   16.7132  -25.4619 C   0  0  0  0  0  0  0  0  0  0  0  0
  -15.3323   17.4108  -26.5021 O   0  0  0  0  0  0  0  0  0  0  0  0
  -16.1107   17.3072  -24.3038 C   0  0  0  0  0  0  0  0  0  0  0  0
  -16.4435   18.5717  -24.2376 C   0  0  0  0  0  0  0  0  0  0  0  0
  -17.0216   19.1447  -22.9560 C   0  0  0  0  0  0  0  0  0  0  0  0
  -16.9279   20.5738  -22.9352 N   0  0  0  0  0  4  0  0  0  0  0  0
  -17.7184   21.1981  -24.0025 C   0  0  0  0  0  0  0  0  0  0  0  0
  -17.3982   21.0498  -21.6328 C   0  0  0  0  0  0  0  0  0  0  0  0
  1  2  1  0
  2  3  1  0
  3  4  1  0
  4  5  1  1
  4  6  1  0
  6  7  1  0
  7  8  2  0
  8  9  1  0
  9 10  2  0
 10 11  1  0
 11 12  2  0
 12 13  1  0
 13 14  1  0
 14 15  1  0
 15 16  2  0
 16 17  1  0
 17 18  2  0
 18 19  1  0
 18 20  1  0
 20 21  1  0
 20 22  2  0
 13 23  2  0
 23 24  1  0
 24 25  2  0
 25 26  1  0
 26 27  1  0
 27 28  2  0
 27 29  1  0
 29 30  2  0
 30 31  1  0
 31 32  1  0
 32 33  1  0
 32 34  1  0
 25  7  1  0
 23  9  1  0
 22 15  1  0
M  CHG  1  32   1
M  END
$$$$
CHEMBL4443188_diffdock_7
     RDKit          3D

 34 36  0  0  0  0  0  0  0  0999 V2000
  -19.0017   11.9328  -25.8819 C   0  0  0  0  0  0  0  0  0  0  0  0
  -17.8959   11.4131  -25.3088 O   0  0  0  0  0  0  0  0  0  0  0  0
  -17.1936   10.4814  -25.9414 C   0  0  0  0  0  0  0  0  0  0  0  0
  -15.8750   10.8585  -26.5915 C   0  0  2  0  0  0  0  0  0  0  0  0
  -14.6914   10.3155  -25.7632 C   0  0  0  0  0  0  0  0  0  0  0  0
  -15.7859   12.2529  -26.4774 O   0  0  0  0  0  0  0  0  0  0  0  0
  -14.8844   13.0587  -27.0541 C   0  0  0  0  0  0  0  0  0  0  0  0
  -14.0799   12.5456  -28.0630 C   0  0  0  0  0  0  0  0  0  0  0  0
  -13.1448   13.3330  -28.6896 C   0  0  0  0  0  0  0  0  0  0  0  0
  -12.3790   12.7912  -29.6662 N   0  0  0  0  0  0  0  0  0  0  0  0
  -11.4610   13.5515  -30.2817 C   0  0  0  0  0  0  0  0  0  0  0  0
  -11.3519   14.8159  -29.8934 N   0  0  0  0  0  0  0  0  0  0  0  0
  -12.0708   15.4280  -28.9364 C   0  0  0  0  0  0  0  0  0  0  0  0
  -11.8642   16.7875  -28.6146 N   0  0  0  0  0  0  0  0  0  0  0  0
  -11.0575   17.6517  -29.3981 C   0  0  0  0  0  0  0  0  0  0  0  0
  -10.5133   18.7828  -28.7651 C   0  0  0  0  0  0  0  0  0  0  0  0
   -9.7037   19.6670  -29.4273 C   0  0  0  0  0  0  0  0  0  0  0  0
   -9.3836   19.4867  -30.7543 C   0  0  0  0  0  0  0  0  0  0  0  0
   -8.5759   20.3897  -31.3743 F   0  0  0  0  0  0  0  0  0  0  0  0
   -9.9017   18.3919  -31.3936 C   0  0  0  0  0  0  0  0  0  0  0  0
   -9.5194   18.1254  -33.0752 Cl  0  0  0  0  0  0  0  0  0  0  0  0
  -10.7288   17.4895  -30.7147 C   0  0  0  0  0  0  0  0  0  0  0  0
  -13.0178   14.6492  -28.2979 C   0  0  0  0  0  0  0  0  0  0  0  0
  -13.8006   15.1711  -27.3060 C   0  0  0  0  0  0  0  0  0  0  0  0
  -14.7661   14.3624  -26.6558 C   0  0  0  0  0  0  0  0  0  0  0  0
  -15.5454   14.9738  -25.6666 N   0  0  0  0  0  0  0  0  0  0  0  0
  -15.8980   16.3200  -25.4879 C   0  0  0  0  0  0  0  0  0  0  0  0
  -15.8405   17.1165  -26.4617 O   0  0  0  0  0  0  0  0  0  0  0  0
  -16.3355   16.8285  -24.1988 C   0  0  0  0  0  0  0  0  0  0  0  0
  -16.6780   18.0762  -23.9981 C   0  0  0  0  0  0  0  0  0  0  0  0
  -17.1881   18.5205  -22.6390 C   0  0  0  0  0  0  0  0  0  0  0  0
  -16.8450   19.8857  -22.3743 N   0  0  0  0  0  4  0  0  0  0  0  0
  -17.7212   20.4934  -21.3660 C   0  0  0  0  0  0  0  0  0  0  0  0
  -15.4567   19.9328  -21.9113 C   0  0  0  0  0  0  0  0  0  0  0  0
  1  2  1  0
  2  3  1  0
  3  4  1  0
  4  5  1  1
  4  6  1  0
  6  7  1  0
  7  8  2  0
  8  9  1  0
  9 10  2  0
 10 11  1  0
 11 12  2  0
 12 13  1  0
 13 14  1  0
 14 15  1  0
 15 16  2  0
 16 17  1  0
 17 18  2  0
 18 19  1  0
 18 20  1  0
 20 21  1  0
 20 22  2  0
 13 23  2  0
 23 24  1  0
 24 25  2  0
 25 26  1  0
 26 27  1  0
 27 28  2  0
 27 29  1  0
 29 30  2  0
 30 31  1  0
 31 32  1  0
 32 33  1  0
 32 34  1  0
 25  7  1  0
 23  9  1  0
 22 15  1  0
M  CHG  1  32   1
M  END
$$$$
CHEMBL4443188_diffdock_8
     RDKit          3D

 34 36  0  0  0  0  0  0  0  0999 V2000
  -18.5058   13.2025  -24.7297 C   0  0  0  0  0  0  0  0  0  0  0  0
  -18.0960   12.3042  -25.6499 O   0  0  0  0  0  0  0  0  0  0  0  0
  -17.1102   11.4625  -25.3653 C   0  0  0  0  0  0  0  0  0  0  0  0
  -15.7890   11.5895  -26.1015 C   0  0  2  0  0  0  0  0  0  0  0  0
  -14.7325   10.6536  -25.4774 C   0  0  0  0  0  0  0  0  0  0  0  0
  -15.3301   12.8855  -25.8274 O   0  0  0  0  0  0  0  0  0  0  0  0
  -14.4624   13.6087  -26.5475 C   0  0  0  0  0  0  0  0  0  0  0  0
  -13.7268   12.9739  -27.5396 C   0  0  0  0  0  0  0  0  0  0  0  0
  -12.8287   13.6728  -28.3091 C   0  0  0  0  0  0  0  0  0  0  0  0
  -12.1299   13.0137  -29.2636 N   0  0  0  0  0  0  0  0  0  0  0  0
  -11.2483   13.6871  -30.0179 C   0  0  0  0  0  0  0  0  0  0  0  0
  -11.1070   14.9857  -29.7838 N   0  0  0  0  0  0  0  0  0  0  0  0
  -11.7598   15.7119  -28.8597 C   0  0  0  0  0  0  0  0  0  0  0  0
  -11.5249   17.0962  -28.7085 N   0  0  0  0  0  0  0  0  0  0  0  0
  -10.5367   17.7961  -29.4467 C   0  0  0  0  0  0  0  0  0  0  0  0
  -10.9785   18.6888  -30.4387 C   0  0  0  0  0  0  0  0  0  0  0  0
  -10.1056   19.4287  -31.1914 C   0  0  0  0  0  0  0  0  0  0  0  0
   -8.7444   19.3307  -31.0091 C   0  0  0  0  0  0  0  0  0  0  0  0
   -7.9124   20.0839  -31.7790 F   0  0  0  0  0  0  0  0  0  0  0  0
   -8.2889   18.4676  -30.0483 C   0  0  0  0  0  0  0  0  0  0  0  0
   -6.5707   18.3146  -29.7839 Cl  0  0  0  0  0  0  0  0  0  0  0  0
   -9.1828   17.7125  -29.2802 C   0  0  0  0  0  0  0  0  0  0  0  0
  -12.6690   15.0231  -28.0786 C   0  0  0  0  0  0  0  0  0  0  0  0
  -13.3839   15.6643  -27.1057 C   0  0  0  0  0  0  0  0  0  0  0  0
  -14.3110   14.9475  -26.3085 C   0  0  0  0  0  0  0  0  0  0  0  0
  -15.0220   15.6773  -25.3485 N   0  0  0  0  0  0  0  0  0  0  0  0
  -15.1660   17.0628  -25.1809 C   0  0  0  0  0  0  0  0  0  0  0  0
  -14.8637   17.8420  -26.1230 O   0  0  0  0  0  0  0  0  0  0  0  0
  -15.6621   17.6327  -23.9395 C   0  0  0  0  0  0  0  0  0  0  0  0
  -15.7396   18.9215  -23.7219 C   0  0  0  0  0  0  0  0  0  0  0  0
  -16.2820   19.4436  -22.4035 C   0  0  0  0  0  0  0  0  0  0  0  0
  -15.9965   20.8374  -22.2379 N   0  0  0  0  0  4  0  0  0  0  0  0
  -17.1447   21.6844  -22.5814 C   0  0  0  0  0  0  0  0  0  0  0  0
  -15.6146   21.0693  -20.8435 C   0  0  0  0  0  0  0  0  0  0  0  0
  1  2  1  0
  2  3  1  0
  3  4  1  0
  4  5  1  1
  4  6  1  0
  6  7  1  0
  7  8  2  0
  8  9  1  0
  9 10  2  0
 10 11  1  0
 11 12  2  0
 12 13  1  0
 13 14  1  0
 14 15  1  0
 15 16  2  0
 16 17  1  0
 17 18  2  0
 18 19  1  0
 18 20  1  0
 20 21  1  0
 20 22  2  0
 13 23  2  0
 23 24  1  0
 24 25  2  0
 25 26  1  0
 26 27  1  0
 27 28  2  0
 27 29  1  0
 29 30  2  0
 30 31  1  0
 31 32  1  0
 32 33  1  0
 32 34  1  0
 25  7  1  0
 23  9  1  0
 22 15  1  0
M  CHG  1  32   1
M  END
$$$$
CHEMBL4443188_diffdock_9
     RDKit          3D

 34 36  0  0  0  0  0  0  0  0999 V2000
  -18.3199    9.6104  -27.8912 C   0  0  0  0  0  0  0  0  0  0  0  0
  -17.9833   10.8227  -27.4027 O   0  0  0  0  0  0  0  0  0  0  0  0
  -17.1327   10.9188  -26.3885 C   0  0  0  0  0  0  0  0  0  0  0  0
  -15.6451   11.0178  -26.6733 C   0  0  2  0  0  0  0  0  0  0  0  0
  -14.8535   10.0852  -25.7323 C   0  0  0  0  0  0  0  0  0  0  0  0
  -15.2756   12.3148  -26.2906 O   0  0  0  0  0  0  0  0  0  0  0  0
  -14.4846   13.1642  -26.9595 C   0  0  0  0  0  0  0  0  0  0  0  0
  -13.7142   12.6747  -28.0061 C   0  0  0  0  0  0  0  0  0  0  0  0
  -12.8917   13.5064  -28.7265 C   0  0  0  0  0  0  0  0  0  0  0  0
  -12.1553   12.9866  -29.7371 N   0  0  0  0  0  0  0  0  0  0  0  0
  -11.3469   13.7904  -30.4442 C   0  0  0  0  0  0  0  0  0  0  0  0
  -11.3127   15.0741  -30.1091 N   0  0  0  0  0  0  0  0  0  0  0  0
  -12.0096   15.6668  -29.1240 C   0  0  0  0  0  0  0  0  0  0  0  0
  -11.8909   17.0501  -28.8657 N   0  0  0  0  0  0  0  0  0  0  0  0
  -11.0222   17.8996  -29.5972 C   0  0  0  0  0  0  0  0  0  0  0  0
  -10.3196   18.8830  -28.8791 C   0  0  0  0  0  0  0  0  0  0  0  0
   -9.4402   19.7383  -29.4883 C   0  0  0  0  0  0  0  0  0  0  0  0
   -9.2028   19.6734  -30.8430 C   0  0  0  0  0  0  0  0  0  0  0  0
   -8.3212   20.5427  -31.4081 F   0  0  0  0  0  0  0  0  0  0  0  0
   -9.8753   18.7235  -31.5648 C   0  0  0  0  0  0  0  0  0  0  0  0
   -9.6020   18.6063  -33.2844 Cl  0  0  0  0  0  0  0  0  0  0  0  0
  -10.7734   17.8503  -30.9401 C   0  0  0  0  0  0  0  0  0  0  0  0
  -12.8438   14.8433  -28.3912 C   0  0  0  0  0  0  0  0  0  0  0  0
  -13.5944   15.3424  -27.3634 C   0  0  0  0  0  0  0  0  0  0  0  0
  -14.4438   14.4882  -26.6166 C   0  0  0  0  0  0  0  0  0  0  0  0
  -15.1983   15.0768  -25.5948 N   0  0  0  0  0  0  0  0  0  0  0  0
  -15.7973   16.3433  -25.5193 C   0  0  0  0  0  0  0  0  0  0  0  0
  -15.4929   17.2306  -26.3596 O   0  0  0  0  0  0  0  0  0  0  0  0
  -16.7721   16.6651  -24.4907 C   0  0  0  0  0  0  0  0  0  0  0  0
  -17.1113   17.8914  -24.1818 C   0  0  0  0  0  0  0  0  0  0  0  0
  -18.0417   18.1562  -23.0117 C   0  0  0  0  0  0  0  0  0  0  0  0
  -18.2487   19.5602  -22.8178 N   0  0  0  0  0  4  0  0  0  0  0  0
  -19.1825   19.8378  -21.7203 C   0  0  0  0  0  0  0  0  0  0  0  0
  -16.9551   20.1838  -22.5320 C   0  0  0  0  0  0  0  0  0  0  0  0
  1  2  1  0
  2  3  1  0
  3  4  1  0
  4  5  1  1
  4  6  1  0
  6  7  1  0
  7  8  2  0
  8  9  1  0
  9 10  2  0
 10 11  1  0
 11 12  2  0
 12 13  1  0
 13 14  1  0
 14 15  1  0
 15 16  2  0
 16 17  1  0
 17 18  2  0
 18 19  1  0
 18 20  1  0
 20 21  1  0
 20 22  2  0
 13 23  2  0
 23 24  1  0
 24 25  2  0
 25 26  1  0
 26 27  1  0
 27 28  2  0
 27 29  1  0
 29 30  2  0
 30 31  1  0
 31 32  1  0
 32 33  1  0
 32 34  1  0
 25  7  1  0
 23  9  1  0
 22 15  1  0
M  CHG  1  32   1
M  END
$$$$
CHEMBL4443188_diffdock_10
     RDKit          3D

 34 36  0  0  0  0  0  0  0  0999 V2000
  -18.2431   10.8071  -29.0550 C   0  0  0  0  0  0  0  0  0  0  0  0
  -17.2105   10.5763  -28.2172 O   0  0  0  0  0  0  0  0  0  0  0  0
  -17.0840   11.2889  -27.1047 C   0  0  0  0  0  0  0  0  0  0  0  0
  -15.9808   10.9419  -26.1217 C   0  0  2  0  0  0  0  0  0  0  0  0
  -16.5791   10.3537  -24.8264 C   0  0  0  0  0  0  0  0  0  0  0  0
  -15.4222   12.1687  -25.7366 O   0  0  0  0  0  0  0  0  0  0  0  0
  -14.6340   12.9672  -26.4685 C   0  0  0  0  0  0  0  0  0  0  0  0
  -13.8413   12.3983  -27.4565 C   0  0  0  0  0  0  0  0  0  0  0  0
  -13.0206   13.1751  -28.2376 C   0  0  0  0  0  0  0  0  0  0  0  0
  -12.2619   12.5786  -29.1876 N   0  0  0  0  0  0  0  0  0  0  0  0
  -11.4550   13.3286  -29.9532 C   0  0  0  0  0  0  0  0  0  0  0  0
  -11.4446   14.6375  -29.7343 N   0  0  0  0  0  0  0  0  0  0  0  0
  -12.1645   15.3049  -28.8157 C   0  0  0  0  0  0  0  0  0  0  0  0
  -12.0698   16.7075  -28.6811 N   0  0  0  0  0  0  0  0  0  0  0  0
  -11.2154   17.5038  -29.4857 C   0  0  0  0  0  0  0  0  0  0  0  0
  -10.8398   18.7626  -28.9852 C   0  0  0  0  0  0  0  0  0  0  0  0
  -10.0011   19.5979  -29.6742 C   0  0  0  0  0  0  0  0  0  0  0  0
   -9.4836   19.2395  -30.8988 C   0  0  0  0  0  0  0  0  0  0  0  0
   -8.6540   20.0997  -31.5500 F   0  0  0  0  0  0  0  0  0  0  0  0
   -9.8347   18.0176  -31.4080 C   0  0  0  0  0  0  0  0  0  0  0  0
   -9.1995   17.5239  -32.9566 Cl  0  0  0  0  0  0  0  0  0  0  0  0
  -10.6919   17.1655  -30.7020 C   0  0  0  0  0  0  0  0  0  0  0  0
  -12.9972   14.5372  -28.0231 C   0  0  0  0  0  0  0  0  0  0  0  0
  -13.7701   15.1144  -27.0544 C   0  0  0  0  0  0  0  0  0  0  0  0
  -14.6177   14.3172  -26.2453 C   0  0  0  0  0  0  0  0  0  0  0  0
  -15.3957   14.9828  -25.2906 N   0  0  0  0  0  0  0  0  0  0  0  0
  -15.8146   16.3204  -25.2296 C   0  0  0  0  0  0  0  0  0  0  0  0
  -15.5788   17.0947  -26.1945 O   0  0  0  0  0  0  0  0  0  0  0  0
  -16.5235   16.8450  -24.0745 C   0  0  0  0  0  0  0  0  0  0  0  0
  -16.8063   18.1142  -23.9215 C   0  0  0  0  0  0  0  0  0  0  0  0
  -17.5254   18.5928  -22.6730 C   0  0  0  0  0  0  0  0  0  0  0  0
  -18.8812   18.9556  -22.9592 N   0  0  0  0  0  4  0  0  0  0  0  0
  -19.6385   17.8489  -23.5553 C   0  0  0  0  0  0  0  0  0  0  0  0
  -19.5221   19.3731  -21.7107 C   0  0  0  0  0  0  0  0  0  0  0  0
  1  2  1  0
  2  3  1  0
  3  4  1  0
  4  5  1  1
  4  6  1  0
  6  7  1  0
  7  8  2  0
  8  9  1  0
  9 10  2  0
 10 11  1  0
 11 12  2  0
 12 13  1  0
 13 14  1  0
 14 15  1  0
 15 16  2  0
 16 17  1  0
 17 18  2  0
 18 19  1  0
 18 20  1  0
 20 21  1  0
 20 22  2  0
 13 23  2  0
 23 24  1  0
 24 25  2  0
 25 26  1  0
 26 27  1  0
 27 28  2  0
 27 29  1  0
 29 30  2  0
 30 31  1  0
 31 32  1  0
 32 33  1  0
 32 34  1  0
 25  7  1  0
 23  9  1  0
 22 15  1  0
M  CHG  1  32   1
M  END
$$$$
CHEMBL4070053_diffdock_1
     RDKit          3D

 35 37  0  0  0  0  0  0  0  0999 V2000
  -14.2740   22.1371  -21.3229 N   0  0  0  0  0  0  0  0  0  0  0  0
  -14.9715   22.4946  -22.8672 P   0  0  2  0  0  5  0  0  0  0  0  0
  -16.4419   22.0965  -22.8207 O   0  0  0  0  0  0  0  0  0  0  0  0
  -14.2678   21.5980  -24.0910 O   0  0  0  0  0  0  0  0  0  0  0  0
  -15.1843   21.3099  -25.1285 C   0  0  0  0  0  0  0  0  0  0  0  0
  -14.8261   19.9222  -25.6121 C   0  0  0  0  0  0  0  0  0  0  0  0
  -13.6089   19.8929  -26.5041 C   0  0  0  0  0  0  0  0  0  0  0  0
  -12.6115   18.8934  -26.0134 C   0  0  0  0  0  0  0  0  0  0  0  0
  -11.4814   19.2795  -25.6402 O   0  0  0  0  0  0  0  0  0  0  0  0
  -12.9024   17.5582  -25.9545 O   0  0  0  0  0  0  0  0  0  0  0  0
  -12.5345   16.5662  -26.8325 C   0  0  0  0  0  0  0  0  0  0  0  0
  -11.5168   16.7656  -27.7390 C   0  0  0  0  0  0  0  0  0  0  0  0
  -11.1294   15.7905  -28.6326 C   0  0  0  0  0  0  0  0  0  0  0  0
  -11.7556   14.5458  -28.6607 C   0  0  0  0  0  0  0  0  0  0  0  0
  -11.4088   13.5866  -29.5295 N   0  0  0  0  0  0  0  0  0  0  0  0
  -12.0380   12.3910  -29.5505 C   0  0  0  0  0  0  0  0  0  0  0  0
  -13.0285   12.1994  -28.6629 N   0  0  0  0  0  0  0  0  0  0  0  0
  -13.4150   13.1177  -27.7756 C   0  0  0  0  0  0  0  0  0  0  0  0
  -14.4356   12.9328  -26.8204 N   0  0  0  0  0  0  0  0  0  0  0  0
  -15.2301   11.7676  -26.7324 C   0  0  0  0  0  0  0  0  0  0  0  0
  -15.9487   11.5182  -25.5831 C   0  0  0  0  0  0  0  0  0  0  0  0
  -16.7292   10.4006  -25.4401 C   0  0  0  0  0  0  0  0  0  0  0  0
  -16.8165    9.4841  -26.4568 C   0  0  0  0  0  0  0  0  0  0  0  0
  -16.1070    9.7094  -27.6178 C   0  0  0  0  0  0  0  0  0  0  0  0
  -16.2490    8.4233  -29.0036 Br  0  0  0  0  0  0  0  0  0  0  0  0
  -15.3258   10.8427  -27.7419 C   0  0  0  0  0  0  0  0  0  0  0  0
  -12.7667   14.3550  -27.7534 C   0  0  0  0  0  0  0  0  0  0  0  0
  -13.1622   15.3244  -26.8542 C   0  0  0  0  0  0  0  0  0  0  0  0
  -14.8038   24.1980  -23.2188 N   0  0  0  0  0  0  0  0  0  0  0  0
  -13.5929   24.5030  -23.9107 C   0  0  0  0  0  0  0  0  0  0  0  0
  -13.8963   24.5564  -25.4004 C   0  0  0  0  0  0  0  0  0  0  0  0
  -12.4121   24.9943  -26.3128 Cl  0  0  0  0  0  0  0  0  0  0  0  0
  -15.0715   24.9884  -22.0447 C   0  0  0  0  0  0  0  0  0  0  0  0
  -15.4332   26.4045  -22.2375 C   0  0  0  0  0  0  0  0  0  0  0  0
  -15.5475   27.3928  -20.7800 Cl  0  0  0  0  0  0  0  0  0  0  0  0
  2  1  1  1
  2  3  2  0
  2  4  1  0
  4  5  1  0
  5  6  1  0
  6  7  1  0
  7  8  1  0
  8  9  2  0
  8 10  1  0
 10 11  1  0
 11 12  2  0
 12 13  1  0
 13 14  2  0
 14 15  1  0
 15 16  2  0
 16 17  1  0
 17 18  2  0
 18 19  1  0
 19 20  1  0
 20 21  2  0
 21 22  1  0
 22 23  2  0
 23 24  1  0
 24 25  1  0
 24 26  2  0
 18 27  1  0
 27 28  2  0
  2 29  1  0
 29 30  1  0
 30 31  1  0
 31 32  1  0
 29 33  1  0
 33 34  1  0
 34 35  1  0
 28 11  1  0
 27 14  1  0
 26 20  1  0
M  END
$$$$
CHEMBL4070053_diffdock_2
     RDKit          3D

 35 37  0  0  0  0  0  0  0  0999 V2000
  -16.6812   21.6049  -22.8041 N   0  0  0  0  0  0  0  0  0  0  0  0
  -15.3015   20.7345  -22.2226 P   0  0  2  0  0  5  0  0  0  0  0  0
  -14.0567   21.3683  -22.8319 O   0  0  0  0  0  0  0  0  0  0  0  0
  -15.3198   19.1367  -22.7161 O   0  0  0  0  0  0  0  0  0  0  0  0
  -15.6911   19.0079  -24.0745 C   0  0  0  0  0  0  0  0  0  0  0  0
  -15.6116   17.5282  -24.3779 C   0  0  0  0  0  0  0  0  0  0  0  0
  -15.7129   17.2109  -25.8501 C   0  0  0  0  0  0  0  0  0  0  0  0
  -15.5134   15.7500  -26.0961 C   0  0  0  0  0  0  0  0  0  0  0  0
  -15.4241   14.9660  -25.1252 O   0  0  0  0  0  0  0  0  0  0  0  0
  -15.4305   15.2399  -27.3625 O   0  0  0  0  0  0  0  0  0  0  0  0
  -14.3416   14.6765  -27.9848 C   0  0  0  0  0  0  0  0  0  0  0  0
  -14.2204   13.3091  -28.0975 C   0  0  0  0  0  0  0  0  0  0  0  0
  -13.1386   12.7171  -28.7131 C   0  0  0  0  0  0  0  0  0  0  0  0
  -12.1075   13.4821  -29.2551 C   0  0  0  0  0  0  0  0  0  0  0  0
  -11.0378   12.9314  -29.8445 N   0  0  0  0  0  0  0  0  0  0  0  0
  -10.0413   13.6902  -30.3513 C   0  0  0  0  0  0  0  0  0  0  0  0
  -10.1644   15.0238  -30.2417 N   0  0  0  0  0  0  0  0  0  0  0  0
  -11.2065   15.6259  -29.6661 C   0  0  0  0  0  0  0  0  0  0  0  0
  -11.3692   17.0224  -29.5587 N   0  0  0  0  0  0  0  0  0  0  0  0
  -10.4453   17.9640  -30.0651 C   0  0  0  0  0  0  0  0  0  0  0  0
  -10.4729   19.2621  -29.6027 C   0  0  0  0  0  0  0  0  0  0  0  0
   -9.6061   20.2183  -30.0641 C   0  0  0  0  0  0  0  0  0  0  0  0
   -8.6711   19.9016  -31.0164 C   0  0  0  0  0  0  0  0  0  0  0  0
   -8.6223   18.6096  -31.4965 C   0  0  0  0  0  0  0  0  0  0  0  0
   -7.3187   18.2049  -32.8123 Br  0  0  0  0  0  0  0  0  0  0  0  0
   -9.5054   17.6603  -31.0180 C   0  0  0  0  0  0  0  0  0  0  0  0
  -12.2371   14.8430  -29.1401 C   0  0  0  0  0  0  0  0  0  0  0  0
  -13.3161   15.4458  -28.5260 C   0  0  0  0  0  0  0  0  0  0  0  0
  -15.2407   20.8075  -20.4778 N   0  0  0  0  0  0  0  0  0  0  0  0
  -16.0750   19.8312  -19.8542 C   0  0  0  0  0  0  0  0  0  0  0  0
  -15.6727   19.7258  -18.3910 C   0  0  0  0  0  0  0  0  0  0  0  0
  -16.7850   18.6096  -17.5285 Cl  0  0  0  0  0  0  0  0  0  0  0  0
  -15.4103   22.1625  -20.0193 C   0  0  0  0  0  0  0  0  0  0  0  0
  -14.1966   22.9416  -19.7143 C   0  0  0  0  0  0  0  0  0  0  0  0
  -14.4453   24.5625  -19.0622 Cl  0  0  0  0  0  0  0  0  0  0  0  0
  2  1  1  6
  2  3  2  0
  2  4  1  0
  4  5  1  0
  5  6  1  0
  6  7  1  0
  7  8  1  0
  8  9  2  0
  8 10  1  0
 10 11  1  0
 11 12  2  0
 12 13  1  0
 13 14  2  0
 14 15  1  0
 15 16  2  0
 16 17  1  0
 17 18  2  0
 18 19  1  0
 19 20  1  0
 20 21  2  0
 21 22  1  0
 22 23  2  0
 23 24  1  0
 24 25  1  0
 24 26  2  0
 18 27  1  0
 27 28  2  0
  2 29  1  0
 29 30  1  0
 30 31  1  0
 31 32  1  0
 29 33  1  0
 33 34  1  0
 34 35  1  0
 28 11  1  0
 27 14  1  0
 26 20  1  0
M  END
$$$$
CHEMBL4070053_diffdock_3
     RDKit          3D

 35 37  0  0  0  0  0  0  0  0999 V2000
  -17.9070   16.7200  -19.0671 N   0  0  0  0  0  0  0  0  0  0  0  0
  -17.5478   18.0049  -20.1712 P   0  0  2  0  0  5  0  0  0  0  0  0
  -18.8317   18.3585  -20.9123 O   0  0  0  0  0  0  0  0  0  0  0  0
  -16.4356   17.5379  -21.3296 O   0  0  0  0  0  0  0  0  0  0  0  0
  -16.9142   17.7610  -22.6414 C   0  0  0  0  0  0  0  0  0  0  0  0
  -16.6043   16.4938  -23.4070 C   0  0  0  0  0  0  0  0  0  0  0  0
  -15.8876   16.7411  -24.7122 C   0  0  0  0  0  0  0  0  0  0  0  0
  -15.5555   15.4514  -25.3912 C   0  0  0  0  0  0  0  0  0  0  0  0
  -15.5510   14.3884  -24.7313 O   0  0  0  0  0  0  0  0  0  0  0  0
  -15.2591   15.3979  -26.7254 O   0  0  0  0  0  0  0  0  0  0  0  0
  -14.2134   14.7513  -27.3409 C   0  0  0  0  0  0  0  0  0  0  0  0
  -14.2449   13.3893  -27.5436 C   0  0  0  0  0  0  0  0  0  0  0  0
  -13.2100   12.7148  -28.1547 C   0  0  0  0  0  0  0  0  0  0  0  0
  -12.0727   13.3861  -28.5999 C   0  0  0  0  0  0  0  0  0  0  0  0
  -11.0463   12.7522  -29.1826 N   0  0  0  0  0  0  0  0  0  0  0  0
   -9.9458   13.4192  -29.5946 C   0  0  0  0  0  0  0  0  0  0  0  0
   -9.9199   14.7481  -29.3974 N   0  0  0  0  0  0  0  0  0  0  0  0
  -10.9124   15.4306  -28.8238 C   0  0  0  0  0  0  0  0  0  0  0  0
  -10.9184   16.8267  -28.6260 N   0  0  0  0  0  0  0  0  0  0  0  0
   -9.9895   17.7102  -29.2204 C   0  0  0  0  0  0  0  0  0  0  0  0
   -9.5499   18.8108  -28.5168 C   0  0  0  0  0  0  0  0  0  0  0  0
   -8.6559   19.7046  -29.0467 C   0  0  0  0  0  0  0  0  0  0  0  0
   -8.1668   19.5230  -30.3152 C   0  0  0  0  0  0  0  0  0  0  0  0
   -8.5908   18.4297  -31.0411 C   0  0  0  0  0  0  0  0  0  0  0  0
   -7.8961   18.2079  -32.7912 Br  0  0  0  0  0  0  0  0  0  0  0  0
   -9.4928   17.5402  -30.4884 C   0  0  0  0  0  0  0  0  0  0  0  0
  -12.0504   14.7425  -28.3957 C   0  0  0  0  0  0  0  0  0  0  0  0
  -13.0813   15.4276  -27.7853 C   0  0  0  0  0  0  0  0  0  0  0  0
  -16.9372   19.3899  -19.2982 N   0  0  0  0  0  0  0  0  0  0  0  0
  -16.7012   20.5160  -20.1435 C   0  0  0  0  0  0  0  0  0  0  0  0
  -16.0556   21.6113  -19.3082 C   0  0  0  0  0  0  0  0  0  0  0  0
  -15.8309   23.0894  -20.3041 Cl  0  0  0  0  0  0  0  0  0  0  0  0
  -15.8441   19.0092  -18.4408 C   0  0  0  0  0  0  0  0  0  0  0  0
  -15.2110   20.0621  -17.6262 C   0  0  0  0  0  0  0  0  0  0  0  0
  -13.9083   19.5492  -16.5519 Cl  0  0  0  0  0  0  0  0  0  0  0  0
  2  1  1  1
  2  3  2  0
  2  4  1  0
  4  5  1  0
  5  6  1  0
  6  7  1  0
  7  8  1  0
  8  9  2  0
  8 10  1  0
 10 11  1  0
 11 12  2  0
 12 13  1  0
 13 14  2  0
 14 15  1  0
 15 16  2  0
 16 17  1  0
 17 18  2  0
 18 19  1  0
 19 20  1  0
 20 21  2  0
 21 22  1  0
 22 23  2  0
 23 24  1  0
 24 25  1  0
 24 26  2  0
 18 27  1  0
 27 28  2  0
  2 29  1  0
 29 30  1  0
 30 31  1  0
 31 32  1  0
 29 33  1  0
 33 34  1  0
 34 35  1  0
 28 11  1  0
 27 14  1  0
 26 20  1  0
M  END
$$$$
CHEMBL4070053_diffdock_4
     RDKit          3D

 35 37  0  0  0  0  0  0  0  0999 V2000
  -18.9945   19.3888  -20.4051 N   0  0  0  0  0  0  0  0  0  0  0  0
  -17.8151   19.7781  -21.6120 P   0  0  2  0  0  5  0  0  0  0  0  0
  -18.5354   19.8974  -22.9498 O   0  0  0  0  0  0  0  0  0  0  0  0
  -16.6765   18.5653  -21.7841 O   0  0  0  0  0  0  0  0  0  0  0  0
  -16.0370   18.6165  -23.0443 C   0  0  0  0  0  0  0  0  0  0  0  0
  -16.3573   17.2993  -23.7153 C   0  0  0  0  0  0  0  0  0  0  0  0
  -15.6607   17.1162  -25.0417 C   0  0  0  0  0  0  0  0  0  0  0  0
  -15.6623   15.6786  -25.4514 C   0  0  0  0  0  0  0  0  0  0  0  0
  -15.7504   14.7869  -24.5781 O   0  0  0  0  0  0  0  0  0  0  0  0
  -15.5751   15.3060  -26.7645 O   0  0  0  0  0  0  0  0  0  0  0  0
  -14.5461   14.6501  -27.3979 C   0  0  0  0  0  0  0  0  0  0  0  0
  -14.5388   13.2765  -27.4991 C   0  0  0  0  0  0  0  0  0  0  0  0
  -13.5191   12.5928  -28.1254 C   0  0  0  0  0  0  0  0  0  0  0  0
  -12.4376   13.2662  -28.6904 C   0  0  0  0  0  0  0  0  0  0  0  0
  -11.4261   12.6247  -29.2907 N   0  0  0  0  0  0  0  0  0  0  0  0
  -10.3791   13.2951  -29.8200 C   0  0  0  0  0  0  0  0  0  0  0  0
  -10.3911   14.6352  -29.7215 N   0  0  0  0  0  0  0  0  0  0  0  0
  -11.3711   15.3254  -29.1359 C   0  0  0  0  0  0  0  0  0  0  0  0
  -11.4173   16.7315  -29.0396 N   0  0  0  0  0  0  0  0  0  0  0  0
  -10.4833   17.5941  -29.6561 C   0  0  0  0  0  0  0  0  0  0  0  0
   -9.9481   18.6427  -28.9395 C   0  0  0  0  0  0  0  0  0  0  0  0
   -9.0446   19.5146  -29.4892 C   0  0  0  0  0  0  0  0  0  0  0  0
   -8.6424   19.3629  -30.7916 C   0  0  0  0  0  0  0  0  0  0  0  0
   -9.1630   18.3217  -31.5313 C   0  0  0  0  0  0  0  0  0  0  0  0
   -8.5868   18.1402  -33.3284 Br  0  0  0  0  0  0  0  0  0  0  0  0
  -10.0729   17.4536  -30.9582 C   0  0  0  0  0  0  0  0  0  0  0  0
  -12.4537   14.6340  -28.5867 C   0  0  0  0  0  0  0  0  0  0  0  0
  -13.4699   15.3283  -27.9621 C   0  0  0  0  0  0  0  0  0  0  0  0
  -17.0160   21.2778  -21.2050 N   0  0  0  0  0  0  0  0  0  0  0  0
  -15.6175   21.2542  -21.4909 C   0  0  0  0  0  0  0  0  0  0  0  0
  -14.9828   22.4871  -20.8653 C   0  0  0  0  0  0  0  0  0  0  0  0
  -13.2273   22.5315  -21.2439 Cl  0  0  0  0  0  0  0  0  0  0  0  0
  -17.3777   21.7027  -19.8771 C   0  0  0  0  0  0  0  0  0  0  0  0
  -16.7797   22.9503  -19.3681 C   0  0  0  0  0  0  0  0  0  0  0  0
  -17.3120   23.4842  -17.7726 Cl  0  0  0  0  0  0  0  0  0  0  0  0
  2  1  1  1
  2  3  2  0
  2  4  1  0
  4  5  1  0
  5  6  1  0
  6  7  1  0
  7  8  1  0
  8  9  2  0
  8 10  1  0
 10 11  1  0
 11 12  2  0
 12 13  1  0
 13 14  2  0
 14 15  1  0
 15 16  2  0
 16 17  1  0
 17 18  2  0
 18 19  1  0
 19 20  1  0
 20 21  2  0
 21 22  1  0
 22 23  2  0
 23 24  1  0
 24 25  1  0
 24 26  2  0
 18 27  1  0
 27 28  2  0
  2 29  1  0
 29 30  1  0
 30 31  1  0
 31 32  1  0
 29 33  1  0
 33 34  1  0
 34 35  1  0
 28 11  1  0
 27 14  1  0
 26 20  1  0
M  END
$$$$
CHEMBL4070053_diffdock_5
     RDKit          3D

 35 37  0  0  0  0  0  0  0  0999 V2000
  -20.7841   18.1965  -21.2102 N   0  0  0  0  0  0  0  0  0  0  0  0
  -19.6445   18.3041  -22.5098 P   0  0  2  0  0  5  0  0  0  0  0  0
  -20.1766   17.4710  -23.6698 O   0  0  0  0  0  0  0  0  0  0  0  0
  -18.1605   17.6561  -22.0920 O   0  0  0  0  0  0  0  0  0  0  0  0
  -17.5340   17.0207  -23.1890 C   0  0  0  0  0  0  0  0  0  0  0  0
  -16.2567   16.4267  -22.6381 C   0  0  0  0  0  0  0  0  0  0  0  0
  -15.9726   15.0351  -23.1491 C   0  0  0  0  0  0  0  0  0  0  0  0
  -14.8031   15.0369  -24.0802 C   0  0  0  0  0  0  0  0  0  0  0  0
  -13.6589   15.2784  -23.6352 O   0  0  0  0  0  0  0  0  0  0  0  0
  -14.9474   14.7747  -25.4148 O   0  0  0  0  0  0  0  0  0  0  0  0
  -14.0096   14.2867  -26.2938 C   0  0  0  0  0  0  0  0  0  0  0  0
  -13.9317   12.9393  -26.5690 C   0  0  0  0  0  0  0  0  0  0  0  0
  -13.0000   12.4221  -27.4430 C   0  0  0  0  0  0  0  0  0  0  0  0
  -12.0846   13.2465  -28.0948 C   0  0  0  0  0  0  0  0  0  0  0  0
  -11.1590   12.7675  -28.9367 N   0  0  0  0  0  0  0  0  0  0  0  0
  -10.2707   13.5817  -29.5481 C   0  0  0  0  0  0  0  0  0  0  0  0
  -10.3516   14.8958  -29.2790 N   0  0  0  0  0  0  0  0  0  0  0  0
  -11.2521   15.4275  -28.4507 C   0  0  0  0  0  0  0  0  0  0  0  0
  -11.3713   16.8041  -28.1694 N   0  0  0  0  0  0  0  0  0  0  0  0
  -10.5566   17.8004  -28.7528 C   0  0  0  0  0  0  0  0  0  0  0  0
  -10.0519   18.8140  -27.9669 C   0  0  0  0  0  0  0  0  0  0  0  0
   -9.2631   19.8101  -28.4809 C   0  0  0  0  0  0  0  0  0  0  0  0
   -8.9500   19.8240  -29.8162 C   0  0  0  0  0  0  0  0  0  0  0  0
   -9.4424   18.8213  -30.6251 C   0  0  0  0  0  0  0  0  0  0  0  0
   -8.9914   18.8697  -32.4659 Br  0  0  0  0  0  0  0  0  0  0  0  0
  -10.2361   17.8260  -30.0870 C   0  0  0  0  0  0  0  0  0  0  0  0
  -12.1703   14.5871  -27.8164 C   0  0  0  0  0  0  0  0  0  0  0  0
  -13.0996   15.1152  -26.9433 C   0  0  0  0  0  0  0  0  0  0  0  0
  -19.4409   19.9719  -22.9896 N   0  0  0  0  0  0  0  0  0  0  0  0
  -18.6095   20.7077  -22.0921 C   0  0  0  0  0  0  0  0  0  0  0  0
  -17.9990   21.8731  -22.8558 C   0  0  0  0  0  0  0  0  0  0  0  0
  -17.8072   21.4374  -24.5880 Cl  0  0  0  0  0  0  0  0  0  0  0  0
  -20.7137   20.5710  -23.2995 C   0  0  0  0  0  0  0  0  0  0  0  0
  -21.2963   20.2991  -24.6260 C   0  0  0  0  0  0  0  0  0  0  0  0
  -22.5810   21.3853  -25.1587 Cl  0  0  0  0  0  0  0  0  0  0  0  0
  2  1  1  1
  2  3  2  0
  2  4  1  0
  4  5  1  0
  5  6  1  0
  6  7  1  0
  7  8  1  0
  8  9  2  0
  8 10  1  0
 10 11  1  0
 11 12  2  0
 12 13  1  0
 13 14  2  0
 14 15  1  0
 15 16  2  0
 16 17  1  0
 17 18  2  0
 18 19  1  0
 19 20  1  0
 20 21  2  0
 21 22  1  0
 22 23  2  0
 23 24  1  0
 24 25  1  0
 24 26  2  0
 18 27  1  0
 27 28  2  0
  2 29  1  0
 29 30  1  0
 30 31  1  0
 31 32  1  0
 29 33  1  0
 33 34  1  0
 34 35  1  0
 28 11  1  0
 27 14  1  0
 26 20  1  0
M  END
$$$$
CHEMBL4070053_diffdock_6
     RDKit          3D

 35 37  0  0  0  0  0  0  0  0999 V2000
  -18.9125   20.6585  -22.7353 N   0  0  0  0  0  0  0  0  0  0  0  0
  -17.3561   20.6052  -21.9777 P   0  0  2  0  0  5  0  0  0  0  0  0
  -16.6794   21.9522  -22.2021 O   0  0  0  0  0  0  0  0  0  0  0  0
  -16.3664   19.4477  -22.6686 O   0  0  0  0  0  0  0  0  0  0  0  0
  -16.9955   18.7945  -23.7536 C   0  0  0  0  0  0  0  0  0  0  0  0
  -16.0660   17.6661  -24.1415 C   0  0  0  0  0  0  0  0  0  0  0  0
  -16.5535   16.8669  -25.3257 C   0  0  0  0  0  0  0  0  0  0  0  0
  -15.5899   15.7760  -25.6663 C   0  0  0  0  0  0  0  0  0  0  0  0
  -14.9818   15.1797  -24.7498 O   0  0  0  0  0  0  0  0  0  0  0  0
  -15.3555   15.4035  -26.9614 O   0  0  0  0  0  0  0  0  0  0  0  0
  -14.2507   14.7699  -27.4794 C   0  0  0  0  0  0  0  0  0  0  0  0
  -14.1186   13.4011  -27.4009 C   0  0  0  0  0  0  0  0  0  0  0  0
  -13.0209   12.7401  -27.9084 C   0  0  0  0  0  0  0  0  0  0  0  0
  -11.9837   13.4328  -28.5302 C   0  0  0  0  0  0  0  0  0  0  0  0
  -10.8989   12.8161  -29.0177 N   0  0  0  0  0  0  0  0  0  0  0  0
   -9.8970   13.5072  -29.6046 C   0  0  0  0  0  0  0  0  0  0  0  0
  -10.0307   14.8421  -29.6815 N   0  0  0  0  0  0  0  0  0  0  0  0
  -11.0880   15.5080  -29.2142 C   0  0  0  0  0  0  0  0  0  0  0  0
  -11.2616   16.9046  -29.3027 N   0  0  0  0  0  0  0  0  0  0  0  0
  -10.3212   17.7791  -29.8920 C   0  0  0  0  0  0  0  0  0  0  0  0
  -10.4588   19.1403  -29.7251 C   0  0  0  0  0  0  0  0  0  0  0  0
   -9.5811   20.0347  -30.2803 C   0  0  0  0  0  0  0  0  0  0  0  0
   -8.5231   19.5893  -31.0310 C   0  0  0  0  0  0  0  0  0  0  0  0
   -8.3624   18.2318  -31.2140 C   0  0  0  0  0  0  0  0  0  0  0  0
   -6.8902   17.6491  -32.2569 Br  0  0  0  0  0  0  0  0  0  0  0  0
   -9.2587   17.3466  -30.6454 C   0  0  0  0  0  0  0  0  0  0  0  0
  -12.1242   14.7954  -28.6057 C   0  0  0  0  0  0  0  0  0  0  0  0
  -13.2192   15.4670  -28.1011 C   0  0  0  0  0  0  0  0  0  0  0  0
  -17.5334   20.2801  -20.2700 N   0  0  0  0  0  0  0  0  0  0  0  0
  -18.2650   21.2979  -19.5866 C   0  0  0  0  0  0  0  0  0  0  0  0
  -17.2719   22.1880  -18.8547 C   0  0  0  0  0  0  0  0  0  0  0  0
  -18.1223   23.6047  -18.1500 Cl  0  0  0  0  0  0  0  0  0  0  0  0
  -16.2668   19.9191  -19.6868 C   0  0  0  0  0  0  0  0  0  0  0  0
  -16.2324   19.6338  -18.2410 C   0  0  0  0  0  0  0  0  0  0  0  0
  -14.6927   19.0731  -17.5860 Cl  0  0  0  0  0  0  0  0  0  0  0  0
  2  1  1  6
  2  3  2  0
  2  4  1  0
  4  5  1  0
  5  6  1  0
  6  7  1  0
  7  8  1  0
  8  9  2  0
  8 10  1  0
 10 11  1  0
 11 12  2  0
 12 13  1  0
 13 14  2  0
 14 15  1  0
 15 16  2  0
 16 17  1  0
 17 18  2  0
 18 19  1  0
 19 20  1  0
 20 21  2  0
 21 22  1  0
 22 23  2  0
 23 24  1  0
 24 25  1  0
 24 26  2  0
 18 27  1  0
 27 28  2  0
  2 29  1  0
 29 30  1  0
 30 31  1  0
 31 32  1  0
 29 33  1  0
 33 34  1  0
 34 35  1  0
 28 11  1  0
 27 14  1  0
 26 20  1  0
M  END
$$$$
CHEMBL4070053_diffdock_7
     RDKit          3D

 35 37  0  0  0  0  0  0  0  0999 V2000
  -15.6341   20.4904  -20.0588 N   0  0  0  0  0  0  0  0  0  0  0  0
  -15.9074   18.7805  -20.0318 P   0  0  2  0  0  5  0  0  0  0  0  0
  -15.2645   18.2231  -18.7675 O   0  0  0  0  0  0  0  0  0  0  0  0
  -15.1747   18.0123  -21.3241 O   0  0  0  0  0  0  0  0  0  0  0  0
  -15.9332   18.1361  -22.5111 C   0  0  0  0  0  0  0  0  0  0  0  0
  -15.4467   17.0295  -23.4202 C   0  0  0  0  0  0  0  0  0  0  0  0
  -16.0646   17.0682  -24.7968 C   0  0  0  0  0  0  0  0  0  0  0  0
  -15.4637   16.0235  -25.6812 C   0  0  0  0  0  0  0  0  0  0  0  0
  -15.7061   14.8155  -25.4639 O   0  0  0  0  0  0  0  0  0  0  0  0
  -14.6540   16.3525  -26.7333 O   0  0  0  0  0  0  0  0  0  0  0  0
  -13.7304   15.5633  -27.3773 C   0  0  0  0  0  0  0  0  0  0  0  0
  -13.8180   14.1896  -27.3297 C   0  0  0  0  0  0  0  0  0  0  0  0
  -12.9048   13.3742  -27.9628 C   0  0  0  0  0  0  0  0  0  0  0  0
  -11.8402   13.9073  -28.6873 C   0  0  0  0  0  0  0  0  0  0  0  0
  -10.9302   13.1371  -29.2986 N   0  0  0  0  0  0  0  0  0  0  0  0
   -9.8968   13.6733  -29.9844 C   0  0  0  0  0  0  0  0  0  0  0  0
   -9.8163   15.0138  -30.0307 N   0  0  0  0  0  0  0  0  0  0  0  0
  -10.6933   15.8286  -29.4419 C   0  0  0  0  0  0  0  0  0  0  0  0
  -10.6430   17.2368  -29.4946 N   0  0  0  0  0  0  0  0  0  0  0  0
   -9.5868   17.9653  -30.0865 C   0  0  0  0  0  0  0  0  0  0  0  0
   -9.7146   19.3258  -30.2663 C   0  0  0  0  0  0  0  0  0  0  0  0
   -8.7257   20.0806  -30.8417 C   0  0  0  0  0  0  0  0  0  0  0  0
   -7.5613   19.4897  -31.2614 C   0  0  0  0  0  0  0  0  0  0  0  0
   -7.4077   18.1294  -31.0935 C   0  0  0  0  0  0  0  0  0  0  0  0
   -5.7867   17.3437  -31.6846 Br  0  0  0  0  0  0  0  0  0  0  0  0
   -8.4171   17.3864  -30.5109 C   0  0  0  0  0  0  0  0  0  0  0  0
  -11.7616   15.2762  -28.7310 C   0  0  0  0  0  0  0  0  0  0  0  0
  -12.6707   16.1016  -28.1010 C   0  0  0  0  0  0  0  0  0  0  0  0
  -17.6230   18.4491  -20.0500 N   0  0  0  0  0  0  0  0  0  0  0  0
  -18.4153   19.6289  -19.9142 C   0  0  0  0  0  0  0  0  0  0  0  0
  -19.3555   19.7107  -21.1073 C   0  0  0  0  0  0  0  0  0  0  0  0
  -20.3370   21.2123  -21.0122 Cl  0  0  0  0  0  0  0  0  0  0  0  0
  -17.9423   17.3719  -19.1485 C   0  0  0  0  0  0  0  0  0  0  0  0
  -19.3401   16.9058  -19.1028 C   0  0  0  0  0  0  0  0  0  0  0  0
  -19.7052   15.6261  -17.9439 Cl  0  0  0  0  0  0  0  0  0  0  0  0
  2  1  1  6
  2  3  2  0
  2  4  1  0
  4  5  1  0
  5  6  1  0
  6  7  1  0
  7  8  1  0
  8  9  2  0
  8 10  1  0
 10 11  1  0
 11 12  2  0
 12 13  1  0
 13 14  2  0
 14 15  1  0
 15 16  2  0
 16 17  1  0
 17 18  2  0
 18 19  1  0
 19 20  1  0
 20 21  2  0
 21 22  1  0
 22 23  2  0
 23 24  1  0
 24 25  1  0
 24 26  2  0
 18 27  1  0
 27 28  2  0
  2 29  1  0
 29 30  1  0
 30 31  1  0
 31 32  1  0
 29 33  1  0
 33 34  1  0
 34 35  1  0
 28 11  1  0
 27 14  1  0
 26 20  1  0
M  END
$$$$
CHEMBL4070053_diffdock_8
     RDKit          3D

 35 37  0  0  0  0  0  0  0  0999 V2000
  -14.1423   20.3024  -20.7962 N   0  0  0  0  0  0  0  0  0  0  0  0
  -15.4922   19.5684  -21.5950 P   0  0  2  0  0  5  0  0  0  0  0  0
  -16.2597   18.7508  -20.5629 O   0  0  0  0  0  0  0  0  0  0  0  0
  -15.0055   18.5029  -22.7887 O   0  0  0  0  0  0  0  0  0  0  0  0
  -15.9719   17.4982  -23.0257 C   0  0  0  0  0  0  0  0  0  0  0  0
  -15.1953   16.2965  -23.5165 C   0  0  0  0  0  0  0  0  0  0  0  0
  -16.0682   15.2236  -24.1208 C   0  0  0  0  0  0  0  0  0  0  0  0
  -15.5466   14.8008  -25.4564 C   0  0  0  0  0  0  0  0  0  0  0  0
  -16.1682   13.9405  -26.1189 O   0  0  0  0  0  0  0  0  0  0  0  0
  -14.4029   15.3354  -25.9827 O   0  0  0  0  0  0  0  0  0  0  0  0
  -13.4704   14.7271  -26.7894 C   0  0  0  0  0  0  0  0  0  0  0  0
  -13.4555   13.3587  -26.9458 C   0  0  0  0  0  0  0  0  0  0  0  0
  -12.5307   12.7221  -27.7452 C   0  0  0  0  0  0  0  0  0  0  0  0
  -11.5584   13.4404  -28.4387 C   0  0  0  0  0  0  0  0  0  0  0  0
  -10.6385   12.8449  -29.2094 N   0  0  0  0  0  0  0  0  0  0  0  0
   -9.6949   13.5581  -29.8626 C   0  0  0  0  0  0  0  0  0  0  0  0
   -9.7143   14.8930  -29.7095 N   0  0  0  0  0  0  0  0  0  0  0  0
  -10.6061   15.5385  -28.9560 C   0  0  0  0  0  0  0  0  0  0  0  0
  -10.6609   16.9386  -28.7973 N   0  0  0  0  0  0  0  0  0  0  0  0
   -9.7052   17.8299  -29.3347 C   0  0  0  0  0  0  0  0  0  0  0  0
  -10.0391   19.1537  -29.5239 C   0  0  0  0  0  0  0  0  0  0  0  0
   -9.1547   20.0601  -30.0484 C   0  0  0  0  0  0  0  0  0  0  0  0
   -7.8907   19.6652  -30.4055 C   0  0  0  0  0  0  0  0  0  0  0  0
   -7.5310   18.3458  -30.2268 C   0  0  0  0  0  0  0  0  0  0  0  0
   -5.7769   17.8323  -30.7307 Br  0  0  0  0  0  0  0  0  0  0  0  0
   -8.4377   17.4476  -29.6962 C   0  0  0  0  0  0  0  0  0  0  0  0
  -11.5816   14.8028  -28.2787 C   0  0  0  0  0  0  0  0  0  0  0  0
  -12.5033   15.4501  -27.4811 C   0  0  0  0  0  0  0  0  0  0  0  0
  -16.5164   20.8005  -22.2923 N   0  0  0  0  0  0  0  0  0  0  0  0
  -15.7790   21.9225  -22.7779 C   0  0  0  0  0  0  0  0  0  0  0  0
  -16.7003   22.7522  -23.6593 C   0  0  0  0  0  0  0  0  0  0  0  0
  -16.7021   22.0970  -25.3319 Cl  0  0  0  0  0  0  0  0  0  0  0  0
  -17.6158   21.1055  -21.4131 C   0  0  0  0  0  0  0  0  0  0  0  0
  -18.7350   20.1479  -21.3548 C   0  0  0  0  0  0  0  0  0  0  0  0
  -20.0917   20.5855  -20.3146 Cl  0  0  0  0  0  0  0  0  0  0  0  0
  2  1  1  1
  2  3  2  0
  2  4  1  0
  4  5  1  0
  5  6  1  0
  6  7  1  0
  7  8  1  0
  8  9  2  0
  8 10  1  0
 10 11  1  0
 11 12  2  0
 12 13  1  0
 13 14  2  0
 14 15  1  0
 15 16  2  0
 16 17  1  0
 17 18  2  0
 18 19  1  0
 19 20  1  0
 20 21  2  0
 21 22  1  0
 22 23  2  0
 23 24  1  0
 24 25  1  0
 24 26  2  0
 18 27  1  0
 27 28  2  0
  2 29  1  0
 29 30  1  0
 30 31  1  0
 31 32  1  0
 29 33  1  0
 33 34  1  0
 34 35  1  0
 28 11  1  0
 27 14  1  0
 26 20  1  0
M  END
$$$$
CHEMBL4070053_diffdock_9
     RDKit          3D

 35 37  0  0  0  0  0  0  0  0999 V2000
  -15.3071   19.1825  -20.9504 N   0  0  0  0  0  0  0  0  0  0  0  0
  -16.0437   17.7370  -20.3445 P   0  0  2  0  0  5  0  0  0  0  0  0
  -14.9306   16.7835  -19.9267 O   0  0  0  0  0  0  0  0  0  0  0  0
  -16.9346   16.9515  -21.5218 O   0  0  0  0  0  0  0  0  0  0  0  0
  -16.2161   15.8799  -22.1006 C   0  0  0  0  0  0  0  0  0  0  0  0
  -16.6286   15.8542  -23.5556 C   0  0  0  0  0  0  0  0  0  0  0  0
  -15.4911   16.1353  -24.5072 C   0  0  0  0  0  0  0  0  0  0  0  0
  -15.9442   16.0263  -25.9275 C   0  0  0  0  0  0  0  0  0  0  0  0
  -17.1133   15.6570  -26.1769 O   0  0  0  0  0  0  0  0  0  0  0  0
  -15.1129   16.3262  -26.9714 O   0  0  0  0  0  0  0  0  0  0  0  0
  -14.0580   15.5916  -27.4592 C   0  0  0  0  0  0  0  0  0  0  0  0
  -14.0730   14.2151  -27.4124 C   0  0  0  0  0  0  0  0  0  0  0  0
  -13.0285   13.4538  -27.8908 C   0  0  0  0  0  0  0  0  0  0  0  0
  -11.8979   14.0472  -28.4492 C   0  0  0  0  0  0  0  0  0  0  0  0
  -10.8624   13.3309  -28.9069 N   0  0  0  0  0  0  0  0  0  0  0  0
   -9.7686   13.9256  -29.4319 C   0  0  0  0  0  0  0  0  0  0  0  0
   -9.7589   15.2686  -29.4782 N   0  0  0  0  0  0  0  0  0  0  0  0
  -10.7609   16.0314  -29.0381 C   0  0  0  0  0  0  0  0  0  0  0  0
  -10.7839   17.4402  -29.0960 N   0  0  0  0  0  0  0  0  0  0  0  0
   -9.7307   18.2240  -29.6184 C   0  0  0  0  0  0  0  0  0  0  0  0
   -9.6276   19.5513  -29.2617 C   0  0  0  0  0  0  0  0  0  0  0  0
   -8.6315   20.3599  -29.7438 C   0  0  0  0  0  0  0  0  0  0  0  0
   -7.6938   19.8592  -30.6105 C   0  0  0  0  0  0  0  0  0  0  0  0
   -7.7741   18.5340  -30.9840 C   0  0  0  0  0  0  0  0  0  0  0  0
   -6.4630   17.8731  -32.1835 Br  0  0  0  0  0  0  0  0  0  0  0  0
   -8.7865   17.7355  -30.4864 C   0  0  0  0  0  0  0  0  0  0  0  0
  -11.8920   15.4184  -28.4935 C   0  0  0  0  0  0  0  0  0  0  0  0
  -12.9326   16.1901  -28.0177 C   0  0  0  0  0  0  0  0  0  0  0  0
  -17.0747   18.1159  -18.9856 N   0  0  0  0  0  0  0  0  0  0  0  0
  -18.3390   17.4559  -19.0500 C   0  0  0  0  0  0  0  0  0  0  0  0
  -18.1826   16.0679  -18.4474 C   0  0  0  0  0  0  0  0  0  0  0  0
  -19.5599   15.7183  -17.3484 Cl  0  0  0  0  0  0  0  0  0  0  0  0
  -17.1204   19.5384  -18.7630 C   0  0  0  0  0  0  0  0  0  0  0  0
  -18.1880   20.0636  -17.8926 C   0  0  0  0  0  0  0  0  0  0  0  0
  -19.6319   20.6766  -18.7010 Cl  0  0  0  0  0  0  0  0  0  0  0  0
  2  1  1  6
  2  3  2  0
  2  4  1  0
  4  5  1  0
  5  6  1  0
  6  7  1  0
  7  8  1  0
  8  9  2  0
  8 10  1  0
 10 11  1  0
 11 12  2  0
 12 13  1  0
 13 14  2  0
 14 15  1  0
 15 16  2  0
 16 17  1  0
 17 18  2  0
 18 19  1  0
 19 20  1  0
 20 21  2  0
 21 22  1  0
 22 23  2  0
 23 24  1  0
 24 25  1  0
 24 26  2  0
 18 27  1  0
 27 28  2  0
  2 29  1  0
 29 30  1  0
 30 31  1  0
 31 32  1  0
 29 33  1  0
 33 34  1  0
 34 35  1  0
 28 11  1  0
 27 14  1  0
 26 20  1  0
M  END
$$$$
CHEMBL4070053_diffdock_10
     RDKit          3D

 35 37  0  0  0  0  0  0  0  0999 V2000
  -39.8862  -45.0949   59.3051 N   0  0  0  0  0  0  0  0  0  0  0  0
  -39.2619  -45.5559   60.8533 P   0  0  2  0  0  5  0  0  0  0  0  0
  -39.0542  -47.0657   60.8442 O   0  0  0  0  0  0  0  0  0  0  0  0
  -40.3442  -45.2258   62.0847 O   0  0  0  0  0  0  0  0  0  0  0  0
  -41.2628  -44.2133   61.7230 C   0  0  0  0  0  0  0  0  0  0  0  0
  -42.2376  -44.1199   62.8757 C   0  0  0  0  0  0  0  0  0  0  0  0
  -43.3762  -43.1616   62.6229 C   0  0  0  0  0  0  0  0  0  0  0  0
  -42.8717  -41.8671   62.0714 C   0  0  0  0  0  0  0  0  0  0  0  0
  -41.9751  -41.8743   61.1987 O   0  0  0  0  0  0  0  0  0  0  0  0
  -43.3694  -40.6646   62.4922 O   0  0  0  0  0  0  0  0  0  0  0  0
  -42.7586  -39.4331   62.4660 C   0  0  0  0  0  0  0  0  0  0  0  0
  -43.1218  -38.4831   61.5372 C   0  0  0  0  0  0  0  0  0  0  0  0
  -42.5245  -37.2420   61.4857 C   0  0  0  0  0  0  0  0  0  0  0  0
  -41.5156  -36.8877   62.3796 C   0  0  0  0  0  0  0  0  0  0  0  0
  -40.9081  -35.6943   62.3409 N   0  0  0  0  0  0  0  0  0  0  0  0
  -39.9218  -35.3749   63.2074 C   0  0  0  0  0  0  0  0  0  0  0  0
  -39.5721  -36.3035   64.1136 N   0  0  0  0  0  0  0  0  0  0  0  0
  -40.1425  -37.5065   64.1984 C   0  0  0  0  0  0  0  0  0  0  0  0
  -39.8089  -38.4887   65.1535 N   0  0  0  0  0  0  0  0  0  0  0  0
  -39.3804  -39.7941   64.8239 C   0  0  0  0  0  0  0  0  0  0  0  0
  -39.3995  -40.7808   65.7860 C   0  0  0  0  0  0  0  0  0  0  0  0
  -38.9882  -42.0617   65.5240 C   0  0  0  0  0  0  0  0  0  0  0  0
  -38.5381  -42.4009   64.2736 C   0  0  0  0  0  0  0  0  0  0  0  0
  -38.5084  -41.4322   63.2923 C   0  0  0  0  0  0  0  0  0  0  0  0
  -37.8807  -41.9334   61.5749 Br  0  0  0  0  0  0  0  0  0  0  0  0
  -38.9277  -40.1464   63.5770 C   0  0  0  0  0  0  0  0  0  0  0  0
  -41.1614  -37.8391   63.3023 C   0  0  0  0  0  0  0  0  0  0  0  0
  -41.7532  -39.0844   63.3627 C   0  0  0  0  0  0  0  0  0  0  0  0
  -37.7546  -44.7271   61.1608 N   0  0  0  0  0  0  0  0  0  0  0  0
  -36.8685  -45.4804   61.9887 C   0  0  0  0  0  0  0  0  0  0  0  0
  -37.5033  -46.8371   62.2545 C   0  0  0  0  0  0  0  0  0  0  0  0
  -36.9431  -48.0262   61.0302 Cl  0  0  0  0  0  0  0  0  0  0  0  0
  -37.9964  -43.3686   61.5741 C   0  0  0  0  0  0  0  0  0  0  0  0
  -36.8560  -42.5975   62.1012 C   0  0  0  0  0  0  0  0  0  0  0  0
  -37.0560  -40.8455   62.1716 Cl  0  0  0  0  0  0  0  0  0  0  0  0
  2  1  1  6
  2  3  2  0
  2  4  1  0
  4  5  1  0
  5  6  1  0
  6  7  1  0
  7  8  1  0
  8  9  2  0
  8 10  1  0
 10 11  1  0
 11 12  2  0
 12 13  1  0
 13 14  2  0
 14 15  1  0
 15 16  2  0
 16 17  1  0
 17 18  2  0
 18 19  1  0
 19 20  1  0
 20 21  2  0
 21 22  1  0
 22 23  2  0
 23 24  1  0
 24 25  1  0
 24 26  2  0
 18 27  1  0
 27 28  2  0
  2 29  1  0
 29 30  1  0
 30 31  1  0
 31 32  1  0
 29 33  1  0
 33 34  1  0
 34 35  1  0
 28 11  1  0
 27 14  1  0
 26 20  1  0
M  END
$$$$
CHEMBL4794670_diffdock_1
     RDKit          3D

 46 50  0  0  0  0  0  0  0  0999 V2000
  -17.1115   16.6520  -24.7154 C   0  0  0  0  0  0  0  0  0  0  0  0
  -16.0771   17.2039  -25.3074 C   0  0  0  0  0  0  0  0  0  0  0  0
  -15.2429   16.5095  -26.2757 C   0  0  0  0  0  0  0  0  0  0  0  0
  -14.8459   17.0927  -27.3302 O   0  0  0  0  0  0  0  0  0  0  0  0
  -14.8173   15.1629  -26.1250 N   0  0  0  0  0  0  0  0  0  0  0  0
  -13.9720   14.5334  -27.0912 C   0  0  0  0  0  0  0  0  0  0  0  0
  -13.0481   15.2493  -27.8153 C   0  0  0  0  0  0  0  0  0  0  0  0
  -12.2017   14.6872  -28.7657 C   0  0  0  0  0  0  0  0  0  0  0  0
  -11.2835   15.4340  -29.4817 C   0  0  0  0  0  0  0  0  0  0  0  0
  -11.1477   16.8094  -29.2561 N   0  0  0  0  0  0  0  0  0  0  0  0
  -10.3025   17.6874  -30.0153 C   0  0  0  0  0  0  0  0  0  0  0  0
   -9.7542   18.8218  -29.4318 C   0  0  0  0  0  0  0  0  0  0  0  0
   -8.9493   19.7054  -30.1170 C   0  0  0  0  0  0  0  0  0  0  0  0
   -8.6506   19.4894  -31.4439 C   0  0  0  0  0  0  0  0  0  0  0  0
   -7.8430   20.3515  -32.1787 O   0  0  0  0  0  0  0  0  0  0  0  0
   -6.6843   20.9530  -31.6389 C   0  0  0  0  0  0  0  0  0  0  0  0
   -5.5399   20.0328  -31.6101 C   0  0  0  0  0  0  0  0  0  0  0  0
   -5.3169   19.2315  -32.7166 C   0  0  0  0  0  0  0  0  0  0  0  0
   -4.2496   18.3465  -32.7346 C   0  0  0  0  0  0  0  0  0  0  0  0
   -3.3954   18.2461  -31.6616 C   0  0  0  0  0  0  0  0  0  0  0  0
   -3.6095   19.0421  -30.5516 C   0  0  0  0  0  0  0  0  0  0  0  0
   -2.7547   18.9282  -29.5022 F   0  0  0  0  0  0  0  0  0  0  0  0
   -4.6686   19.9123  -30.5477 C   0  0  0  0  0  0  0  0  0  0  0  0
   -9.1865   18.3707  -32.0351 C   0  0  0  0  0  0  0  0  0  0  0  0
   -8.8176   18.0821  -33.7193 Cl  0  0  0  0  0  0  0  0  0  0  0  0
  -10.0054   17.4725  -31.3373 C   0  0  0  0  0  0  0  0  0  0  0  0
  -10.5246   14.7630  -30.3791 N   0  0  0  0  0  0  0  0  0  0  0  0
  -10.5977   13.4507  -30.6189 C   0  0  0  0  0  0  0  0  0  0  0  0
  -11.4949   12.7445  -29.9133 N   0  0  0  0  0  0  0  0  0  0  0  0
  -12.2830   13.3251  -29.0092 C   0  0  0  0  0  0  0  0  0  0  0  0
  -13.2160   12.5879  -28.2822 C   0  0  0  0  0  0  0  0  0  0  0  0
  -14.0463   13.1511  -27.3456 C   0  0  0  0  0  0  0  0  0  0  0  0
  -14.9696   12.4828  -26.6163 O   0  0  0  0  0  0  0  0  0  0  0  0
  -14.9175   11.1973  -26.1450 C   0  0  0  0  0  0  0  0  0  0  0  0
  -16.1920   10.7883  -25.5113 C   0  0  0  0  0  0  0  0  0  0  0  0
  -16.4420   11.0601  -24.1529 C   0  0  0  0  0  0  0  0  0  0  0  0
  -17.6634   10.6085  -23.8366 N   0  0  0  0  0  0  0  0  0  0  0  0
  -18.3257   10.6864  -22.5379 C   0  0  0  0  0  0  0  0  0  0  0  0
  -18.9637   12.0218  -22.3494 C   0  0  0  0  0  0  0  0  0  0  0  0
  -18.7851   12.5120  -20.9422 C   0  0  0  0  0  0  0  0  0  0  0  0
  -19.4559   13.8223  -20.7224 C   0  0  0  0  0  0  0  0  0  0  0  0
  -20.2754   14.3247  -21.5355 O   0  0  0  0  0  0  0  0  0  0  0  0
  -19.1765   14.5590  -19.5503 N   0  0  0  0  0  0  0  0  0  0  0  0
  -19.9158   15.6312  -19.2252 O   0  0  0  0  0  0  0  0  0  0  0  0
  -18.1445   10.0835  -24.9438 N   0  0  0  0  0  0  0  0  0  0  0  0
  -17.2852   10.1876  -25.9249 N   0  0  0  0  0  0  0  0  0  0  0  0
  1  2  2  0
  2  3  1  0
  3  4  2  0
  3  5  1  0
  5  6  1  0
  6  7  2  0
  7  8  1  0
  8  9  2  0
  9 10  1  0
 10 11  1  0
 11 12  2  0
 12 13  1  0
 13 14  2  0
 14 15  1  0
 15 16  1  0
 16 17  1  0
 17 18  2  0
 18 19  1  0
 19 20  2  0
 20 21  1  0
 21 22  1  0
 21 23  2  0
 14 24  1  0
 24 25  1  0
 24 26  2  0
  9 27  1  0
 27 28  2  0
 28 29  1  0
 29 30  2  0
 30 31  1  0
 31 32  2  0
 32 33  1  0
 33 34  1  0
 34 35  1  0
 35 36  2  0
 36 37  1  0
 37 38  1  0
 38 39  1  0
 39 40  1  0
 40 41  1  0
 41 42  2  0
 41 43  1  0
 43 44  1  0
 37 45  1  0
 45 46  2  0
 32  6  1  0
 46 35  1  0
 30  8  1  0
 26 11  1  0
 23 17  1  0
M  END
$$$$
CHEMBL4794670_diffdock_2
     RDKit          3D

 46 50  0  0  0  0  0  0  0  0999 V2000
  -15.9589   16.9826  -23.4991 C   0  0  0  0  0  0  0  0  0  0  0  0
  -15.1846   17.4965  -24.4274 C   0  0  0  0  0  0  0  0  0  0  0  0
  -14.3940   16.6932  -25.3469 C   0  0  0  0  0  0  0  0  0  0  0  0
  -13.2109   17.0317  -25.6554 O   0  0  0  0  0  0  0  0  0  0  0  0
  -14.8670   15.5007  -25.9561 N   0  0  0  0  0  0  0  0  0  0  0  0
  -13.9901   14.6300  -26.6755 C   0  0  0  0  0  0  0  0  0  0  0  0
  -12.9759   15.1200  -27.4640 C   0  0  0  0  0  0  0  0  0  0  0  0
  -12.0953   14.3185  -28.1834 C   0  0  0  0  0  0  0  0  0  0  0  0
  -11.0857   14.8406  -28.9719 C   0  0  0  0  0  0  0  0  0  0  0  0
  -10.8886   16.2242  -29.0593 N   0  0  0  0  0  0  0  0  0  0  0  0
   -9.9801   16.8696  -29.9647 C   0  0  0  0  0  0  0  0  0  0  0  0
   -8.9584   17.6787  -29.4856 C   0  0  0  0  0  0  0  0  0  0  0  0
   -8.0685   18.3328  -30.3092 C   0  0  0  0  0  0  0  0  0  0  0  0
   -8.1626   18.2044  -31.6771 C   0  0  0  0  0  0  0  0  0  0  0  0
   -7.2886   18.8438  -32.5503 O   0  0  0  0  0  0  0  0  0  0  0  0
   -5.8939   18.8915  -32.3306 C   0  0  0  0  0  0  0  0  0  0  0  0
   -5.4074   20.2627  -32.1293 C   0  0  0  0  0  0  0  0  0  0  0  0
   -4.0477   20.4553  -31.9546 C   0  0  0  0  0  0  0  0  0  0  0  0
   -3.5423   21.7317  -31.7600 C   0  0  0  0  0  0  0  0  0  0  0  0
   -4.3743   22.8263  -31.7365 C   0  0  0  0  0  0  0  0  0  0  0  0
   -5.7339   22.6447  -31.9100 C   0  0  0  0  0  0  0  0  0  0  0  0
   -6.5389   23.7383  -31.8837 F   0  0  0  0  0  0  0  0  0  0  0  0
   -6.2195   21.3771  -32.1014 C   0  0  0  0  0  0  0  0  0  0  0  0
   -9.1692   17.4069  -32.1660 C   0  0  0  0  0  0  0  0  0  0  0  0
   -9.3030   17.2336  -33.9004 Cl  0  0  0  0  0  0  0  0  0  0  0  0
  -10.0742   16.7420  -31.3274 C   0  0  0  0  0  0  0  0  0  0  0  0
  -10.3022   13.9491  -29.6222 N   0  0  0  0  0  0  0  0  0  0  0  0
  -10.4322   12.6210  -29.5578 C   0  0  0  0  0  0  0  0  0  0  0  0
  -11.4178   12.1351  -28.7871 N   0  0  0  0  0  0  0  0  0  0  0  0
  -12.2361   12.9414  -28.1118 C   0  0  0  0  0  0  0  0  0  0  0  0
  -13.2607   12.4318  -27.3163 C   0  0  0  0  0  0  0  0  0  0  0  0
  -14.1242   13.2306  -26.6091 C   0  0  0  0  0  0  0  0  0  0  0  0
  -15.1354   12.7880  -25.8264 O   0  0  0  0  0  0  0  0  0  0  0  0
  -16.0299   11.7806  -26.0763 C   0  0  0  0  0  0  0  0  0  0  0  0
  -16.4451   11.0887  -24.8345 C   0  0  0  0  0  0  0  0  0  0  0  0
  -16.8755   11.8195  -23.7110 C   0  0  0  0  0  0  0  0  0  0  0  0
  -17.2104   10.9624  -22.7369 N   0  0  0  0  0  0  0  0  0  0  0  0
  -17.7118   11.2896  -21.4053 C   0  0  0  0  0  0  0  0  0  0  0  0
  -18.7637   10.3193  -20.9837 C   0  0  0  0  0  0  0  0  0  0  0  0
  -20.1318   10.8083  -21.3603 C   0  0  0  0  0  0  0  0  0  0  0  0
  -21.2048   10.0182  -20.6972 C   0  0  0  0  0  0  0  0  0  0  0  0
  -22.2392    9.6195  -21.2940 O   0  0  0  0  0  0  0  0  0  0  0  0
  -21.0803    9.6858  -19.3302 N   0  0  0  0  0  0  0  0  0  0  0  0
  -22.0264    8.9588  -18.7155 O   0  0  0  0  0  0  0  0  0  0  0  0
  -16.9976    9.7617  -23.2329 N   0  0  0  0  0  0  0  0  0  0  0  0
  -16.5498    9.8333  -24.4602 N   0  0  0  0  0  0  0  0  0  0  0  0
  1  2  2  0
  2  3  1  0
  3  4  2  0
  3  5  1  0
  5  6  1  0
  6  7  2  0
  7  8  1  0
  8  9  2  0
  9 10  1  0
 10 11  1  0
 11 12  2  0
 12 13  1  0
 13 14  2  0
 14 15  1  0
 15 16  1  0
 16 17  1  0
 17 18  2  0
 18 19  1  0
 19 20  2  0
 20 21  1  0
 21 22  1  0
 21 23  2  0
 14 24  1  0
 24 25  1  0
 24 26  2  0
  9 27  1  0
 27 28  2  0
 28 29  1  0
 29 30  2  0
 30 31  1  0
 31 32  2  0
 32 33  1  0
 33 34  1  0
 34 35  1  0
 35 36  2  0
 36 37  1  0
 37 38  1  0
 38 39  1  0
 39 40  1  0
 40 41  1  0
 41 42  2  0
 41 43  1  0
 43 44  1  0
 37 45  1  0
 45 46  2  0
 32  6  1  0
 46 35  1  0
 30  8  1  0
 26 11  1  0
 23 17  1  0
M  END
$$$$
CHEMBL4794670_diffdock_3
     RDKit          3D

 46 50  0  0  0  0  0  0  0  0999 V2000
  -15.9117   18.4132  -24.6525 C   0  0  0  0  0  0  0  0  0  0  0  0
  -16.1245   17.2789  -25.2797 C   0  0  0  0  0  0  0  0  0  0  0  0
  -15.0926   16.5626  -26.0131 C   0  0  0  0  0  0  0  0  0  0  0  0
  -14.5159   17.0928  -27.0110 O   0  0  0  0  0  0  0  0  0  0  0  0
  -14.6591   15.2512  -25.6824 N   0  0  0  0  0  0  0  0  0  0  0  0
  -13.7390   14.5366  -26.5114 C   0  0  0  0  0  0  0  0  0  0  0  0
  -12.8272   15.1909  -27.3057 C   0  0  0  0  0  0  0  0  0  0  0  0
  -11.9106   14.5453  -28.1294 C   0  0  0  0  0  0  0  0  0  0  0  0
  -11.0066   15.2309  -28.9208 C   0  0  0  0  0  0  0  0  0  0  0  0
  -10.9589   16.6303  -28.9053 N   0  0  0  0  0  0  0  0  0  0  0  0
  -10.0836   17.4320  -29.7133 C   0  0  0  0  0  0  0  0  0  0  0  0
   -9.3753   18.4884  -29.1559 C   0  0  0  0  0  0  0  0  0  0  0  0
   -8.5339   19.2981  -29.8870 C   0  0  0  0  0  0  0  0  0  0  0  0
   -8.3597   19.0831  -31.2361 C   0  0  0  0  0  0  0  0  0  0  0  0
   -7.5215   19.8723  -32.0171 O   0  0  0  0  0  0  0  0  0  0  0  0
   -6.6122   20.7985  -31.4596 C   0  0  0  0  0  0  0  0  0  0  0  0
   -5.3487   20.1667  -31.0572 C   0  0  0  0  0  0  0  0  0  0  0  0
   -4.5321   20.8451  -30.1688 C   0  0  0  0  0  0  0  0  0  0  0  0
   -3.3292   20.2888  -29.7612 C   0  0  0  0  0  0  0  0  0  0  0  0
   -2.9239   19.0600  -30.2269 C   0  0  0  0  0  0  0  0  0  0  0  0
   -3.7324   18.3743  -31.1145 C   0  0  0  0  0  0  0  0  0  0  0  0
   -3.3146   17.1622  -31.5628 F   0  0  0  0  0  0  0  0  0  0  0  0
   -4.9188   18.9365  -31.5088 C   0  0  0  0  0  0  0  0  0  0  0  0
   -9.0545   18.0412  -31.8017 C   0  0  0  0  0  0  0  0  0  0  0  0
   -8.8450   17.7550  -33.5135 Cl  0  0  0  0  0  0  0  0  0  0  0  0
   -9.9104   17.2182  -31.0572 C   0  0  0  0  0  0  0  0  0  0  0  0
  -10.1733   14.4804  -29.6783 N   0  0  0  0  0  0  0  0  0  0  0  0
  -10.1614   13.1450  -29.7155 C   0  0  0  0  0  0  0  0  0  0  0  0
  -11.0463   12.4992  -28.9400 N   0  0  0  0  0  0  0  0  0  0  0  0
  -11.9040   13.1596  -28.1629 C   0  0  0  0  0  0  0  0  0  0  0  0
  -12.8237   12.4843  -27.3626 C   0  0  0  0  0  0  0  0  0  0  0  0
  -13.7237   13.1299  -26.5522 C   0  0  0  0  0  0  0  0  0  0  0  0
  -14.6378   12.5234  -25.7600 O   0  0  0  0  0  0  0  0  0  0  0  0
  -15.3975   11.4149  -26.0275 C   0  0  0  0  0  0  0  0  0  0  0  0
  -16.3554   11.1240  -24.9362 C   0  0  0  0  0  0  0  0  0  0  0  0
  -17.0073   12.1670  -24.2517 C   0  0  0  0  0  0  0  0  0  0  0  0
  -17.8285   11.6384  -23.3340 N   0  0  0  0  0  0  0  0  0  0  0  0
  -18.6984   12.3571  -22.4075 C   0  0  0  0  0  0  0  0  0  0  0  0
  -18.8691   11.5893  -21.1397 C   0  0  0  0  0  0  0  0  0  0  0  0
  -18.9406   12.5095  -19.9563 C   0  0  0  0  0  0  0  0  0  0  0  0
  -19.4146   11.8048  -18.7341 C   0  0  0  0  0  0  0  0  0  0  0  0
  -19.3245   10.5591  -18.5752 O   0  0  0  0  0  0  0  0  0  0  0  0
  -19.9987   12.5482  -17.6848 N   0  0  0  0  0  0  0  0  0  0  0  0
  -20.4118   11.9375  -16.5631 O   0  0  0  0  0  0  0  0  0  0  0  0
  -17.6911   10.3339  -23.4453 N   0  0  0  0  0  0  0  0  0  0  0  0
  -16.8296   10.0307  -24.3822 N   0  0  0  0  0  0  0  0  0  0  0  0
  1  2  2  0
  2  3  1  0
  3  4  2  0
  3  5  1  0
  5  6  1  0
  6  7  2  0
  7  8  1  0
  8  9  2  0
  9 10  1  0
 10 11  1  0
 11 12  2  0
 12 13  1  0
 13 14  2  0
 14 15  1  0
 15 16  1  0
 16 17  1  0
 17 18  2  0
 18 19  1  0
 19 20  2  0
 20 21  1  0
 21 22  1  0
 21 23  2  0
 14 24  1  0
 24 25  1  0
 24 26  2  0
  9 27  1  0
 27 28  2  0
 28 29  1  0
 29 30  2  0
 30 31  1  0
 31 32  2  0
 32 33  1  0
 33 34  1  0
 34 35  1  0
 35 36  2  0
 36 37  1  0
 37 38  1  0
 38 39  1  0
 39 40  1  0
 40 41  1  0
 41 42  2  0
 41 43  1  0
 43 44  1  0
 37 45  1  0
 45 46  2  0
 32  6  1  0
 46 35  1  0
 30  8  1  0
 26 11  1  0
 23 17  1  0
M  END
$$$$
CHEMBL4794670_diffdock_4
     RDKit          3D

 46 50  0  0  0  0  0  0  0  0999 V2000
  -15.3432   17.9520  -23.5153 C   0  0  0  0  0  0  0  0  0  0  0  0
  -15.7900   17.2996  -24.5641 C   0  0  0  0  0  0  0  0  0  0  0  0
  -14.9251   16.6014  -25.5023 C   0  0  0  0  0  0  0  0  0  0  0  0
  -13.8008   17.0856  -25.8356 O   0  0  0  0  0  0  0  0  0  0  0  0
  -15.2578   15.3584  -26.1036 N   0  0  0  0  0  0  0  0  0  0  0  0
  -14.3194   14.6442  -26.9121 C   0  0  0  0  0  0  0  0  0  0  0  0
  -13.3381   15.2950  -27.6220 C   0  0  0  0  0  0  0  0  0  0  0  0
  -12.4008   14.6495  -28.4222 C   0  0  0  0  0  0  0  0  0  0  0  0
  -11.4262   15.3318  -29.1280 C   0  0  0  0  0  0  0  0  0  0  0  0
  -11.3250   16.7259  -29.0437 N   0  0  0  0  0  0  0  0  0  0  0  0
  -10.4562   17.5372  -29.8490 C   0  0  0  0  0  0  0  0  0  0  0  0
   -9.7145   18.5629  -29.2778 C   0  0  0  0  0  0  0  0  0  0  0  0
   -8.8774   19.3803  -30.0052 C   0  0  0  0  0  0  0  0  0  0  0  0
   -8.7419   19.2051  -31.3644 C   0  0  0  0  0  0  0  0  0  0  0  0
   -7.9097   20.0037  -32.1422 O   0  0  0  0  0  0  0  0  0  0  0  0
   -6.8005   20.6948  -31.6058 C   0  0  0  0  0  0  0  0  0  0  0  0
   -5.6278   19.8257  -31.4421 C   0  0  0  0  0  0  0  0  0  0  0  0
   -4.5444   20.3158  -30.7333 C   0  0  0  0  0  0  0  0  0  0  0  0
   -3.4146   19.5322  -30.5540 C   0  0  0  0  0  0  0  0  0  0  0  0
   -3.3460   18.2603  -31.0723 C   0  0  0  0  0  0  0  0  0  0  0  0
   -4.4228   17.7615  -31.7818 C   0  0  0  0  0  0  0  0  0  0  0  0
   -4.3357   16.5032  -32.2856 F   0  0  0  0  0  0  0  0  0  0  0  0
   -5.5331   18.5474  -31.9513 C   0  0  0  0  0  0  0  0  0  0  0  0
   -9.4701   18.1940  -31.9438 C   0  0  0  0  0  0  0  0  0  0  0  0
   -9.3100   17.9585  -33.6686 Cl  0  0  0  0  0  0  0  0  0  0  0  0
  -10.3216   17.3630  -31.2031 C   0  0  0  0  0  0  0  0  0  0  0  0
  -10.5800   14.5821  -29.8719 N   0  0  0  0  0  0  0  0  0  0  0  0
  -10.6180   13.2504  -29.9714 C   0  0  0  0  0  0  0  0  0  0  0  0
  -11.5711   12.6078  -29.2784 N   0  0  0  0  0  0  0  0  0  0  0  0
  -12.4462   13.2677  -28.5206 C   0  0  0  0  0  0  0  0  0  0  0  0
  -13.4366   12.5959  -27.8064 C   0  0  0  0  0  0  0  0  0  0  0  0
  -14.3566   13.2413  -27.0184 C   0  0  0  0  0  0  0  0  0  0  0  0
  -15.3382   12.6384  -26.3087 O   0  0  0  0  0  0  0  0  0  0  0  0
  -16.1845   11.6358  -26.7038 C   0  0  0  0  0  0  0  0  0  0  0  0
  -16.9779   11.1034  -25.5723 C   0  0  0  0  0  0  0  0  0  0  0  0
  -17.9112   11.9154  -24.9006 C   0  0  0  0  0  0  0  0  0  0  0  0
  -18.5035   11.1935  -23.9395 N   0  0  0  0  0  0  0  0  0  0  0  0
  -19.5358   11.6393  -23.0083 C   0  0  0  0  0  0  0  0  0  0  0  0
  -20.7155   12.1782  -23.7457 C   0  0  0  0  0  0  0  0  0  0  0  0
  -21.7587   12.6899  -22.7959 C   0  0  0  0  0  0  0  0  0  0  0  0
  -23.0625   12.9200  -23.4759 C   0  0  0  0  0  0  0  0  0  0  0  0
  -23.5199   14.0663  -23.7245 O   0  0  0  0  0  0  0  0  0  0  0  0
  -23.8451   11.8133  -23.8726 N   0  0  0  0  0  0  0  0  0  0  0  0
  -24.9695   11.9920  -24.5835 O   0  0  0  0  0  0  0  0  0  0  0  0
  -17.9635    9.9952  -24.0129 N   0  0  0  0  0  0  0  0  0  0  0  0
  -17.0705    9.9403  -24.9677 N   0  0  0  0  0  0  0  0  0  0  0  0
  1  2  2  0
  2  3  1  0
  3  4  2  0
  3  5  1  0
  5  6  1  0
  6  7  2  0
  7  8  1  0
  8  9  2  0
  9 10  1  0
 10 11  1  0
 11 12  2  0
 12 13  1  0
 13 14  2  0
 14 15  1  0
 15 16  1  0
 16 17  1  0
 17 18  2  0
 18 19  1  0
 19 20  2  0
 20 21  1  0
 21 22  1  0
 21 23  2  0
 14 24  1  0
 24 25  1  0
 24 26  2  0
  9 27  1  0
 27 28  2  0
 28 29  1  0
 29 30  2  0
 30 31  1  0
 31 32  2  0
 32 33  1  0
 33 34  1  0
 34 35  1  0
 35 36  2  0
 36 37  1  0
 37 38  1  0
 38 39  1  0
 39 40  1  0
 40 41  1  0
 41 42  2  0
 41 43  1  0
 43 44  1  0
 37 45  1  0
 45 46  2  0
 32  6  1  0
 46 35  1  0
 30  8  1  0
 26 11  1  0
 23 17  1  0
M  END
$$$$
CHEMBL4794670_diffdock_5
     RDKit          3D

 46 50  0  0  0  0  0  0  0  0999 V2000
  -15.3469   18.3507  -23.7665 C   0  0  0  0  0  0  0  0  0  0  0  0
  -15.5110   17.1586  -24.2928 C   0  0  0  0  0  0  0  0  0  0  0  0
  -14.7386   16.6683  -25.4236 C   0  0  0  0  0  0  0  0  0  0  0  0
  -13.7796   17.3481  -25.9008 O   0  0  0  0  0  0  0  0  0  0  0  0
  -14.9868   15.4265  -26.0667 N   0  0  0  0  0  0  0  0  0  0  0  0
  -13.9676   14.7519  -26.8085 C   0  0  0  0  0  0  0  0  0  0  0  0
  -13.0381   15.4435  -27.5489 C   0  0  0  0  0  0  0  0  0  0  0  0
  -12.0266   14.8376  -28.2873 C   0  0  0  0  0  0  0  0  0  0  0  0
  -11.1070   15.5601  -29.0260 C   0  0  0  0  0  0  0  0  0  0  0  0
  -11.1414   16.9599  -29.0403 N   0  0  0  0  0  0  0  0  0  0  0  0
  -10.3522   17.7928  -29.9033 C   0  0  0  0  0  0  0  0  0  0  0  0
   -9.6578   18.8825  -29.3946 C   0  0  0  0  0  0  0  0  0  0  0  0
   -8.8980   19.7225  -30.1789 C   0  0  0  0  0  0  0  0  0  0  0  0
   -8.7965   19.5059  -31.5351 C   0  0  0  0  0  0  0  0  0  0  0  0
   -8.0421   20.3250  -32.3689 O   0  0  0  0  0  0  0  0  0  0  0  0
   -6.9541   21.0933  -31.8983 C   0  0  0  0  0  0  0  0  0  0  0  0
   -5.7448   20.2839  -31.6981 C   0  0  0  0  0  0  0  0  0  0  0  0
   -4.7185   20.8182  -30.9382 C   0  0  0  0  0  0  0  0  0  0  0  0
   -3.5573   20.0917  -30.7229 C   0  0  0  0  0  0  0  0  0  0  0  0
   -3.4008   18.8336  -31.2556 C   0  0  0  0  0  0  0  0  0  0  0  0
   -4.4200   18.2909  -32.0161 C   0  0  0  0  0  0  0  0  0  0  0  0
   -4.2463   17.0471  -32.5333 F   0  0  0  0  0  0  0  0  0  0  0  0
   -5.5623   19.0206  -32.2206 C   0  0  0  0  0  0  0  0  0  0  0  0
   -9.4786   18.4313  -32.0530 C   0  0  0  0  0  0  0  0  0  0  0  0
   -9.3608   18.1427  -33.7732 Cl  0  0  0  0  0  0  0  0  0  0  0  0
  -10.2515   17.5774  -31.2545 C   0  0  0  0  0  0  0  0  0  0  0  0
  -10.1774   14.8458  -29.7021 N   0  0  0  0  0  0  0  0  0  0  0  0
  -10.0857   13.5129  -29.7066 C   0  0  0  0  0  0  0  0  0  0  0  0
  -10.9875   12.8310  -28.9832 N   0  0  0  0  0  0  0  0  0  0  0  0
  -11.9376   13.4543  -28.2872 C   0  0  0  0  0  0  0  0  0  0  0  0
  -12.8742   12.7413  -27.5410 C   0  0  0  0  0  0  0  0  0  0  0  0
  -13.8681   13.3479  -26.8146 C   0  0  0  0  0  0  0  0  0  0  0  0
  -14.8024   12.7038  -26.0777 O   0  0  0  0  0  0  0  0  0  0  0  0
  -15.5704   11.6245  -26.4278 C   0  0  0  0  0  0  0  0  0  0  0  0
  -16.4349   11.1753  -25.3125 C   0  0  0  0  0  0  0  0  0  0  0  0
  -16.9351   12.0955  -24.3719 C   0  0  0  0  0  0  0  0  0  0  0  0
  -17.6991   11.4409  -23.4868 N   0  0  0  0  0  0  0  0  0  0  0  0
  -18.4160   12.0075  -22.3481 C   0  0  0  0  0  0  0  0  0  0  0  0
  -19.5612   12.8456  -22.8088 C   0  0  0  0  0  0  0  0  0  0  0  0
  -20.1069   13.6787  -21.6861 C   0  0  0  0  0  0  0  0  0  0  0  0
  -21.5260   13.3443  -21.3869 C   0  0  0  0  0  0  0  0  0  0  0  0
  -22.4272   14.2128  -21.2507 O   0  0  0  0  0  0  0  0  0  0  0  0
  -21.9068   11.9919  -21.2437 N   0  0  0  0  0  0  0  0  0  0  0  0
  -23.2005   11.6564  -21.1190 O   0  0  0  0  0  0  0  0  0  0  0  0
  -17.6726   10.1790  -23.8610 N   0  0  0  0  0  0  0  0  0  0  0  0
  -16.9335   10.0215  -24.9291 N   0  0  0  0  0  0  0  0  0  0  0  0
  1  2  2  0
  2  3  1  0
  3  4  2  0
  3  5  1  0
  5  6  1  0
  6  7  2  0
  7  8  1  0
  8  9  2  0
  9 10  1  0
 10 11  1  0
 11 12  2  0
 12 13  1  0
 13 14  2  0
 14 15  1  0
 15 16  1  0
 16 17  1  0
 17 18  2  0
 18 19  1  0
 19 20  2  0
 20 21  1  0
 21 22  1  0
 21 23  2  0
 14 24  1  0
 24 25  1  0
 24 26  2  0
  9 27  1  0
 27 28  2  0
 28 29  1  0
 29 30  2  0
 30 31  1  0
 31 32  2  0
 32 33  1  0
 33 34  1  0
 34 35  1  0
 35 36  2  0
 36 37  1  0
 37 38  1  0
 38 39  1  0
 39 40  1  0
 40 41  1  0
 41 42  2  0
 41 43  1  0
 43 44  1  0
 37 45  1  0
 45 46  2  0
 32  6  1  0
 46 35  1  0
 30  8  1  0
 26 11  1  0
 23 17  1  0
M  END
$$$$
CHEMBL4794670_diffdock_6
     RDKit          3D

 46 50  0  0  0  0  0  0  0  0999 V2000
  -15.6483   19.2684  -24.8333 C   0  0  0  0  0  0  0  0  0  0  0  0
  -15.6765   17.9554  -24.8548 C   0  0  0  0  0  0  0  0  0  0  0  0
  -14.8096   17.1488  -25.6996 C   0  0  0  0  0  0  0  0  0  0  0  0
  -14.4403   17.5654  -26.8396 O   0  0  0  0  0  0  0  0  0  0  0  0
  -14.3205   15.8679  -25.3292 N   0  0  0  0  0  0  0  0  0  0  0  0
  -13.7023   14.9994  -26.2820 C   0  0  0  0  0  0  0  0  0  0  0  0
  -12.8709   15.4832  -27.2645 C   0  0  0  0  0  0  0  0  0  0  0  0
  -12.2442   14.6834  -28.2148 C   0  0  0  0  0  0  0  0  0  0  0  0
  -11.4150   15.1994  -29.1943 C   0  0  0  0  0  0  0  0  0  0  0  0
  -11.1464   16.5724  -29.2547 N   0  0  0  0  0  0  0  0  0  0  0  0
  -10.2641   17.1967  -30.1999 C   0  0  0  0  0  0  0  0  0  0  0  0
   -9.2082   17.9879  -29.7671 C   0  0  0  0  0  0  0  0  0  0  0  0
   -8.3409   18.6216  -30.6299 C   0  0  0  0  0  0  0  0  0  0  0  0
   -8.4940   18.4897  -31.9921 C   0  0  0  0  0  0  0  0  0  0  0  0
   -7.6448   19.1089  -32.9036 O   0  0  0  0  0  0  0  0  0  0  0  0
   -6.4451   19.7451  -32.5142 C   0  0  0  0  0  0  0  0  0  0  0  0
   -6.5894   21.2043  -32.4302 C   0  0  0  0  0  0  0  0  0  0  0  0
   -5.5652   21.9303  -31.8468 C   0  0  0  0  0  0  0  0  0  0  0  0
   -5.6574   23.3100  -31.7442 C   0  0  0  0  0  0  0  0  0  0  0  0
   -6.7601   23.9826  -32.2161 C   0  0  0  0  0  0  0  0  0  0  0  0
   -7.7885   23.2667  -32.8005 C   0  0  0  0  0  0  0  0  0  0  0  0
   -8.8689   23.9493  -33.2606 F   0  0  0  0  0  0  0  0  0  0  0  0
   -7.6838   21.9032  -32.8952 C   0  0  0  0  0  0  0  0  0  0  0  0
   -9.5350   17.7098  -32.4353 C   0  0  0  0  0  0  0  0  0  0  0  0
   -9.7437   17.5325  -34.1619 Cl  0  0  0  0  0  0  0  0  0  0  0  0
  -10.4169   17.0657  -31.5569 C   0  0  0  0  0  0  0  0  0  0  0  0
  -10.8725   14.3108  -30.0590 N   0  0  0  0  0  0  0  0  0  0  0  0
  -11.0775   12.9908  -30.0342 C   0  0  0  0  0  0  0  0  0  0  0  0
  -11.8852   12.5108  -29.0757 N   0  0  0  0  0  0  0  0  0  0  0  0
  -12.4615   13.3148  -28.1829 C   0  0  0  0  0  0  0  0  0  0  0  0
  -13.3027   12.8116  -27.1922 C   0  0  0  0  0  0  0  0  0  0  0  0
  -13.9159   13.6085  -26.2580 C   0  0  0  0  0  0  0  0  0  0  0  0
  -14.7424   13.1722  -25.2796 O   0  0  0  0  0  0  0  0  0  0  0  0
  -15.0587   11.8826  -24.9416 C   0  0  0  0  0  0  0  0  0  0  0  0
  -16.4444   11.5328  -25.3296 C   0  0  0  0  0  0  0  0  0  0  0  0
  -17.5457   12.1220  -24.6803 C   0  0  0  0  0  0  0  0  0  0  0  0
  -18.6754   11.6542  -25.2289 N   0  0  0  0  0  0  0  0  0  0  0  0
  -20.0455   12.0025  -24.8642 C   0  0  0  0  0  0  0  0  0  0  0  0
  -20.0642   12.8810  -23.6585 C   0  0  0  0  0  0  0  0  0  0  0  0
  -21.4692   13.2458  -23.2776 C   0  0  0  0  0  0  0  0  0  0  0  0
  -21.5303   13.8931  -21.9388 C   0  0  0  0  0  0  0  0  0  0  0  0
  -22.1637   13.4085  -20.9646 O   0  0  0  0  0  0  0  0  0  0  0  0
  -20.8519   15.1131  -21.7242 N   0  0  0  0  0  0  0  0  0  0  0  0
  -20.8081   15.6641  -20.5010 O   0  0  0  0  0  0  0  0  0  0  0  0
  -18.2919   10.8176  -26.1702 N   0  0  0  0  0  0  0  0  0  0  0  0
  -16.9869   10.7451  -26.2308 N   0  0  0  0  0  0  0  0  0  0  0  0
  1  2  2  0
  2  3  1  0
  3  4  2  0
  3  5  1  0
  5  6  1  0
  6  7  2  0
  7  8  1  0
  8  9  2  0
  9 10  1  0
 10 11  1  0
 11 12  2  0
 12 13  1  0
 13 14  2  0
 14 15  1  0
 15 16  1  0
 16 17  1  0
 17 18  2  0
 18 19  1  0
 19 20  2  0
 20 21  1  0
 21 22  1  0
 21 23  2  0
 14 24  1  0
 24 25  1  0
 24 26  2  0
  9 27  1  0
 27 28  2  0
 28 29  1  0
 29 30  2  0
 30 31  1  0
 31 32  2  0
 32 33  1  0
 33 34  1  0
 34 35  1  0
 35 36  2  0
 36 37  1  0
 37 38  1  0
 38 39  1  0
 39 40  1  0
 40 41  1  0
 41 42  2  0
 41 43  1  0
 43 44  1  0
 37 45  1  0
 45 46  2  0
 32  6  1  0
 46 35  1  0
 30  8  1  0
 26 11  1  0
 23 17  1  0
M  END
$$$$
CHEMBL4794670_diffdock_7
     RDKit          3D

 46 50  0  0  0  0  0  0  0  0999 V2000
  -15.8910   19.1867  -24.5877 C   0  0  0  0  0  0  0  0  0  0  0  0
  -16.0536   17.8985  -24.7859 C   0  0  0  0  0  0  0  0  0  0  0  0
  -15.2147   17.1124  -25.6771 C   0  0  0  0  0  0  0  0  0  0  0  0
  -14.5297   17.6706  -26.5874 O   0  0  0  0  0  0  0  0  0  0  0  0
  -15.0970   15.6989  -25.6036 N   0  0  0  0  0  0  0  0  0  0  0  0
  -14.1974   14.9786  -26.4499 C   0  0  0  0  0  0  0  0  0  0  0  0
  -13.1849   15.6128  -27.1304 C   0  0  0  0  0  0  0  0  0  0  0  0
  -12.2828   14.9607  -27.9649 C   0  0  0  0  0  0  0  0  0  0  0  0
  -11.2755   15.6264  -28.6399 C   0  0  0  0  0  0  0  0  0  0  0  0
  -11.1030   17.0076  -28.4873 N   0  0  0  0  0  0  0  0  0  0  0  0
  -10.1388   17.7991  -29.1983 C   0  0  0  0  0  0  0  0  0  0  0  0
   -9.3661   18.7408  -28.5318 C   0  0  0  0  0  0  0  0  0  0  0  0
   -8.4376   19.5366  -29.1665 C   0  0  0  0  0  0  0  0  0  0  0  0
   -8.2363   19.4238  -30.5241 C   0  0  0  0  0  0  0  0  0  0  0  0
   -7.3110   20.2038  -31.2104 O   0  0  0  0  0  0  0  0  0  0  0  0
   -6.2510   20.8741  -30.5605 C   0  0  0  0  0  0  0  0  0  0  0  0
   -5.0088   20.0904  -30.5656 C   0  0  0  0  0  0  0  0  0  0  0  0
   -3.9242   20.5790  -29.8575 C   0  0  0  0  0  0  0  0  0  0  0  0
   -2.7302   19.8743  -29.8344 C   0  0  0  0  0  0  0  0  0  0  0  0
   -2.5981   18.6835  -30.5092 C   0  0  0  0  0  0  0  0  0  0  0  0
   -3.6755   18.1868  -31.2194 C   0  0  0  0  0  0  0  0  0  0  0  0
   -3.5251   17.0091  -31.8790 F   0  0  0  0  0  0  0  0  0  0  0  0
   -4.8496   18.8942  -31.2335 C   0  0  0  0  0  0  0  0  0  0  0  0
   -8.9942   18.4961  -31.1973 C   0  0  0  0  0  0  0  0  0  0  0  0
   -8.7514   18.3407  -32.9215 Cl  0  0  0  0  0  0  0  0  0  0  0  0
   -9.9387   17.6872  -30.5509 C   0  0  0  0  0  0  0  0  0  0  0  0
  -10.4696   14.8721  -29.4230 N   0  0  0  0  0  0  0  0  0  0  0  0
  -10.5758   13.5506  -29.5879 C   0  0  0  0  0  0  0  0  0  0  0  0
  -11.5597   12.9240  -28.9240 N   0  0  0  0  0  0  0  0  0  0  0  0
  -12.3990   13.5895  -28.1313 C   0  0  0  0  0  0  0  0  0  0  0  0
  -13.4217   12.9346  -27.4474 C   0  0  0  0  0  0  0  0  0  0  0  0
  -14.3065   13.5864  -26.6251 C   0  0  0  0  0  0  0  0  0  0  0  0
  -15.3168   13.0000  -25.9423 O   0  0  0  0  0  0  0  0  0  0  0  0
  -16.1275   11.9682  -26.3368 C   0  0  0  0  0  0  0  0  0  0  0  0
  -16.6358   11.1916  -25.1828 C   0  0  0  0  0  0  0  0  0  0  0  0
  -17.7415   11.6452  -24.4389 C   0  0  0  0  0  0  0  0  0  0  0  0
  -18.0083   10.7575  -23.4712 N   0  0  0  0  0  0  0  0  0  0  0  0
  -19.0727   10.8294  -22.4745 C   0  0  0  0  0  0  0  0  0  0  0  0
  -20.4123   10.7325  -23.1242 C   0  0  0  0  0  0  0  0  0  0  0  0
  -21.4953   10.5411  -22.1031 C   0  0  0  0  0  0  0  0  0  0  0  0
  -22.8109   11.0377  -22.5907 C   0  0  0  0  0  0  0  0  0  0  0  0
  -23.1150   12.2585  -22.6376 O   0  0  0  0  0  0  0  0  0  0  0  0
  -23.7846   10.1133  -23.0288 N   0  0  0  0  0  0  0  0  0  0  0  0
  -24.9563   10.5398  -23.5257 O   0  0  0  0  0  0  0  0  0  0  0  0
  -17.1124    9.8028  -23.6095 N   0  0  0  0  0  0  0  0  0  0  0  0
  -16.3083   10.0549  -24.6104 N   0  0  0  0  0  0  0  0  0  0  0  0
  1  2  2  0
  2  3  1  0
  3  4  2  0
  3  5  1  0
  5  6  1  0
  6  7  2  0
  7  8  1  0
  8  9  2  0
  9 10  1  0
 10 11  1  0
 11 12  2  0
 12 13  1  0
 13 14  2  0
 14 15  1  0
 15 16  1  0
 16 17  1  0
 17 18  2  0
 18 19  1  0
 19 20  2  0
 20 21  1  0
 21 22  1  0
 21 23  2  0
 14 24  1  0
 24 25  1  0
 24 26  2  0
  9 27  1  0
 27 28  2  0
 28 29  1  0
 29 30  2  0
 30 31  1  0
 31 32  2  0
 32 33  1  0
 33 34  1  0
 34 35  1  0
 35 36  2  0
 36 37  1  0
 37 38  1  0
 38 39  1  0
 39 40  1  0
 40 41  1  0
 41 42  2  0
 41 43  1  0
 43 44  1  0
 37 45  1  0
 45 46  2  0
 32  6  1  0
 46 35  1  0
 30  8  1  0
 26 11  1  0
 23 17  1  0
M  END
$$$$
CHEMBL4794670_diffdock_8
     RDKit          3D

 46 50  0  0  0  0  0  0  0  0999 V2000
  -15.2933   18.6206  -24.3006 C   0  0  0  0  0  0  0  0  0  0  0  0
  -15.6879   17.5579  -24.9641 C   0  0  0  0  0  0  0  0  0  0  0  0
  -14.8029   16.7583  -25.7967 C   0  0  0  0  0  0  0  0  0  0  0  0
  -14.3832   17.1979  -26.9103 O   0  0  0  0  0  0  0  0  0  0  0  0
  -14.3499   15.4597  -25.4422 N   0  0  0  0  0  0  0  0  0  0  0  0
  -13.6131   14.6485  -26.3606 C   0  0  0  0  0  0  0  0  0  0  0  0
  -12.6843   15.1916  -27.2167 C   0  0  0  0  0  0  0  0  0  0  0  0
  -11.9404   14.4489  -28.1280 C   0  0  0  0  0  0  0  0  0  0  0  0
  -11.0146   15.0240  -28.9799 C   0  0  0  0  0  0  0  0  0  0  0  0
  -10.7645   16.4013  -28.9408 N   0  0  0  0  0  0  0  0  0  0  0  0
   -9.6179   17.0452  -29.5171 C   0  0  0  0  0  0  0  0  0  0  0  0
   -9.4659   18.4233  -29.4387 C   0  0  0  0  0  0  0  0  0  0  0  0
   -8.3940   19.0936  -29.9862 C   0  0  0  0  0  0  0  0  0  0  0  0
   -7.4058   18.4016  -30.6503 C   0  0  0  0  0  0  0  0  0  0  0  0
   -6.3044   19.0324  -31.2197 O   0  0  0  0  0  0  0  0  0  0  0  0
   -5.8624   20.3093  -30.8077 C   0  0  0  0  0  0  0  0  0  0  0  0
   -4.4279   20.5087  -31.0518 C   0  0  0  0  0  0  0  0  0  0  0  0
   -3.5993   19.4001  -31.0240 C   0  0  0  0  0  0  0  0  0  0  0  0
   -2.2380   19.5396  -31.2476 C   0  0  0  0  0  0  0  0  0  0  0  0
   -1.6851   20.7730  -31.5001 C   0  0  0  0  0  0  0  0  0  0  0  0
   -2.5040   21.8866  -31.5300 C   0  0  0  0  0  0  0  0  0  0  0  0
   -1.9388   23.0958  -31.7812 F   0  0  0  0  0  0  0  0  0  0  0  0
   -3.8479   21.7338  -31.3072 C   0  0  0  0  0  0  0  0  0  0  0  0
   -7.5429   17.0370  -30.7361 C   0  0  0  0  0  0  0  0  0  0  0  0
   -6.2973   16.1434  -31.5765 Cl  0  0  0  0  0  0  0  0  0  0  0  0
   -8.6337   16.3559  -30.1791 C   0  0  0  0  0  0  0  0  0  0  0  0
  -10.3627   14.1873  -29.8203 N   0  0  0  0  0  0  0  0  0  0  0  0
  -10.5465   12.8656  -29.8848 C   0  0  0  0  0  0  0  0  0  0  0  0
  -11.4491   12.3277  -29.0496 N   0  0  0  0  0  0  0  0  0  0  0  0
  -12.1364   13.0781  -28.1894 C   0  0  0  0  0  0  0  0  0  0  0  0
  -13.0756   12.5151  -27.3272 C   0  0  0  0  0  0  0  0  0  0  0  0
  -13.8041   13.2559  -26.4304 C   0  0  0  0  0  0  0  0  0  0  0  0
  -14.7285   12.7605  -25.5754 O   0  0  0  0  0  0  0  0  0  0  0  0
  -15.3495   11.5394  -25.6036 C   0  0  0  0  0  0  0  0  0  0  0  0
  -16.7966   11.6476  -25.3085 C   0  0  0  0  0  0  0  0  0  0  0  0
  -17.2818   12.6352  -24.4305 C   0  0  0  0  0  0  0  0  0  0  0  0
  -18.6155   12.5306  -24.3525 N   0  0  0  0  0  0  0  0  0  0  0  0
  -19.5224   13.3576  -23.5618 C   0  0  0  0  0  0  0  0  0  0  0  0
  -20.4983   12.5089  -22.8180 C   0  0  0  0  0  0  0  0  0  0  0  0
  -21.8942   12.7175  -23.3281 C   0  0  0  0  0  0  0  0  0  0  0  0
  -22.9131   12.1531  -22.4014 C   0  0  0  0  0  0  0  0  0  0  0  0
  -23.7897   12.8522  -21.8288 O   0  0  0  0  0  0  0  0  0  0  0  0
  -22.9183   10.7663  -22.1343 N   0  0  0  0  0  0  0  0  0  0  0  0
  -23.8597   10.2268  -21.3440 O   0  0  0  0  0  0  0  0  0  0  0  0
  -18.9389   11.5285  -25.1425 N   0  0  0  0  0  0  0  0  0  0  0  0
  -17.8762   11.0104  -25.7028 N   0  0  0  0  0  0  0  0  0  0  0  0
  1  2  2  0
  2  3  1  0
  3  4  2  0
  3  5  1  0
  5  6  1  0
  6  7  2  0
  7  8  1  0
  8  9  2  0
  9 10  1  0
 10 11  1  0
 11 12  2  0
 12 13  1  0
 13 14  2  0
 14 15  1  0
 15 16  1  0
 16 17  1  0
 17 18  2  0
 18 19  1  0
 19 20  2  0
 20 21  1  0
 21 22  1  0
 21 23  2  0
 14 24  1  0
 24 25  1  0
 24 26  2  0
  9 27  1  0
 27 28  2  0
 28 29  1  0
 29 30  2  0
 30 31  1  0
 31 32  2  0
 32 33  1  0
 33 34  1  0
 34 35  1  0
 35 36  2  0
 36 37  1  0
 37 38  1  0
 38 39  1  0
 39 40  1  0
 40 41  1  0
 41 42  2  0
 41 43  1  0
 43 44  1  0
 37 45  1  0
 45 46  2  0
 32  6  1  0
 46 35  1  0
 30  8  1  0
 26 11  1  0
 23 17  1  0
M  END
$$$$
CHEMBL4794670_diffdock_9
     RDKit          3D

 46 50  0  0  0  0  0  0  0  0999 V2000
  -17.3240   17.9063  -24.8992 C   0  0  0  0  0  0  0  0  0  0  0  0
  -16.0727   17.5099  -24.8493 C   0  0  0  0  0  0  0  0  0  0  0  0
  -15.4115   16.8042  -25.9357 C   0  0  0  0  0  0  0  0  0  0  0  0
  -14.9154   17.4375  -26.9168 O   0  0  0  0  0  0  0  0  0  0  0  0
  -15.2711   15.3918  -25.9861 N   0  0  0  0  0  0  0  0  0  0  0  0
  -14.3136   14.7658  -26.8438 C   0  0  0  0  0  0  0  0  0  0  0  0
  -13.1774   15.4218  -27.2550 C   0  0  0  0  0  0  0  0  0  0  0  0
  -12.2145   14.8600  -28.0873 C   0  0  0  0  0  0  0  0  0  0  0  0
  -11.0820   15.5462  -28.4874 C   0  0  0  0  0  0  0  0  0  0  0  0
  -10.8408   16.8514  -28.0411 N   0  0  0  0  0  0  0  0  0  0  0  0
   -9.7068   17.6504  -28.4115 C   0  0  0  0  0  0  0  0  0  0  0  0
   -9.8633   18.7724  -29.2145 C   0  0  0  0  0  0  0  0  0  0  0  0
   -8.8091   19.5655  -29.6117 C   0  0  0  0  0  0  0  0  0  0  0  0
   -7.5247   19.2657  -29.2155 C   0  0  0  0  0  0  0  0  0  0  0  0
   -6.4277   20.0352  -29.5896 O   0  0  0  0  0  0  0  0  0  0  0  0
   -6.2107   20.4527  -30.9216 C   0  0  0  0  0  0  0  0  0  0  0  0
   -5.7605   19.3528  -31.7847 C   0  0  0  0  0  0  0  0  0  0  0  0
   -5.6160   19.6011  -33.1388 C   0  0  0  0  0  0  0  0  0  0  0  0
   -5.1947   18.5932  -33.9928 C   0  0  0  0  0  0  0  0  0  0  0  0
   -4.9133   17.3341  -33.5170 C   0  0  0  0  0  0  0  0  0  0  0  0
   -5.0544   17.0758  -32.1660 C   0  0  0  0  0  0  0  0  0  0  0  0
   -4.7714   15.8262  -31.7156 F   0  0  0  0  0  0  0  0  0  0  0  0
   -5.4718   18.0818  -31.3336 C   0  0  0  0  0  0  0  0  0  0  0  0
   -7.3543   18.1578  -28.4206 C   0  0  0  0  0  0  0  0  0  0  0  0
   -5.7299   17.7630  -27.9093 Cl  0  0  0  0  0  0  0  0  0  0  0  0
   -8.4272   17.3515  -28.0172 C   0  0  0  0  0  0  0  0  0  0  0  0
  -10.2281   14.8836  -29.3019 N   0  0  0  0  0  0  0  0  0  0  0  0
  -10.3981   13.6331  -29.7401 C   0  0  0  0  0  0  0  0  0  0  0  0
  -11.5033   12.9850  -29.3400 N   0  0  0  0  0  0  0  0  0  0  0  0
  -12.3975   13.5621  -28.5381 C   0  0  0  0  0  0  0  0  0  0  0  0
  -13.5456   12.8861  -28.1290 C   0  0  0  0  0  0  0  0  0  0  0  0
  -14.4897   13.4484  -27.3066 C   0  0  0  0  0  0  0  0  0  0  0  0
  -15.6210   12.8385  -26.8833 O   0  0  0  0  0  0  0  0  0  0  0  0
  -15.7917   11.5389  -26.4841 C   0  0  0  0  0  0  0  0  0  0  0  0
  -17.0964   11.3326  -25.8144 C   0  0  0  0  0  0  0  0  0  0  0  0
  -17.3760   11.9418  -24.5766 C   0  0  0  0  0  0  0  0  0  0  0  0
  -18.6199   11.6137  -24.2014 N   0  0  0  0  0  0  0  0  0  0  0  0
  -19.3162   12.0303  -22.9877 C   0  0  0  0  0  0  0  0  0  0  0  0
  -19.3492   13.5181  -22.8818 C   0  0  0  0  0  0  0  0  0  0  0  0
  -20.3854   13.9664  -21.8931 C   0  0  0  0  0  0  0  0  0  0  0  0
  -20.3729   15.4432  -21.7083 C   0  0  0  0  0  0  0  0  0  0  0  0
  -19.5967   16.2119  -22.3341 O   0  0  0  0  0  0  0  0  0  0  0  0
  -21.2672   16.0372  -20.7907 N   0  0  0  0  0  0  0  0  0  0  0  0
  -20.8616   17.0361  -19.9911 O   0  0  0  0  0  0  0  0  0  0  0  0
  -19.0861   10.8401  -25.1592 N   0  0  0  0  0  0  0  0  0  0  0  0
  -18.1963   10.6743  -26.1039 N   0  0  0  0  0  0  0  0  0  0  0  0
  1  2  2  0
  2  3  1  0
  3  4  2  0
  3  5  1  0
  5  6  1  0
  6  7  2  0
  7  8  1  0
  8  9  2  0
  9 10  1  0
 10 11  1  0
 11 12  2  0
 12 13  1  0
 13 14  2  0
 14 15  1  0
 15 16  1  0
 16 17  1  0
 17 18  2  0
 18 19  1  0
 19 20  2  0
 20 21  1  0
 21 22  1  0
 21 23  2  0
 14 24  1  0
 24 25  1  0
 24 26  2  0
  9 27  1  0
 27 28  2  0
 28 29  1  0
 29 30  2  0
 30 31  1  0
 31 32  2  0
 32 33  1  0
 33 34  1  0
 34 35  1  0
 35 36  2  0
 36 37  1  0
 37 38  1  0
 38 39  1  0
 39 40  1  0
 40 41  1  0
 41 42  2  0
 41 43  1  0
 43 44  1  0
 37 45  1  0
 45 46  2  0
 32  6  1  0
 46 35  1  0
 30  8  1  0
 26 11  1  0
 23 17  1  0
M  END
$$$$
CHEMBL4794670_diffdock_10
     RDKit          3D

 46 50  0  0  0  0  0  0  0  0999 V2000
 -187.5718   -2.6793   24.0301 C   0  0  0  0  0  0  0  0  0  0  0  0
 -186.8849   -3.5422   23.3169 C   0  0  0  0  0  0  0  0  0  0  0  0
 -185.4319   -3.6092   23.3209 C   0  0  0  0  0  0  0  0  0  0  0  0
 -184.7862   -3.8057   22.2467 O   0  0  0  0  0  0  0  0  0  0  0  0
 -184.6410   -3.4644   24.4917 N   0  0  0  0  0  0  0  0  0  0  0  0
 -183.2190   -3.3322   24.4216 C   0  0  0  0  0  0  0  0  0  0  0  0
 -182.4836   -3.9672   23.4488 C   0  0  0  0  0  0  0  0  0  0  0  0
 -181.1003   -3.8720   23.3348 C   0  0  0  0  0  0  0  0  0  0  0  0
 -180.3865   -4.5258   22.3466 C   0  0  0  0  0  0  0  0  0  0  0  0
 -181.0428   -5.3047   21.3857 N   0  0  0  0  0  0  0  0  0  0  0  0
 -180.4140   -5.8983   20.2394 C   0  0  0  0  0  0  0  0  0  0  0  0
 -181.0315   -6.9334   19.5498 C   0  0  0  0  0  0  0  0  0  0  0  0
 -180.4672   -7.5481   18.4536 C   0  0  0  0  0  0  0  0  0  0  0  0
 -179.2346   -7.1470   17.9884 C   0  0  0  0  0  0  0  0  0  0  0  0
 -178.6234   -7.7356   16.8860 O   0  0  0  0  0  0  0  0  0  0  0  0
 -179.2315   -8.7714   16.1425 C   0  0  0  0  0  0  0  0  0  0  0  0
 -180.2076   -8.2614   15.1705 C   0  0  0  0  0  0  0  0  0  0  0  0
 -180.6618   -9.1225   14.1864 C   0  0  0  0  0  0  0  0  0  0  0  0
 -181.5826   -8.6854   13.2463 C   0  0  0  0  0  0  0  0  0  0  0  0
 -182.0611   -7.3965   13.2706 C   0  0  0  0  0  0  0  0  0  0  0  0
 -181.6137   -6.5285   14.2494 C   0  0  0  0  0  0  0  0  0  0  0  0
 -182.0985   -5.2598   14.2565 F   0  0  0  0  0  0  0  0  0  0  0  0
 -180.7035   -6.9743   15.1722 C   0  0  0  0  0  0  0  0  0  0  0  0
 -178.6113   -6.1237   18.6611 C   0  0  0  0  0  0  0  0  0  0  0  0
 -177.0455   -5.6027   18.0838 Cl  0  0  0  0  0  0  0  0  0  0  0  0
 -179.1859   -5.4990   19.7763 C   0  0  0  0  0  0  0  0  0  0  0  0
 -179.0445   -4.3513   22.3523 N   0  0  0  0  0  0  0  0  0  0  0  0
 -178.3702   -3.6038   23.2308 C   0  0  0  0  0  0  0  0  0  0  0  0
 -179.0818   -2.9779   24.1813 N   0  0  0  0  0  0  0  0  0  0  0  0
 -180.4074   -3.0948   24.2497 C   0  0  0  0  0  0  0  0  0  0  0  0
 -181.1412   -2.4461   25.2413 C   0  0  0  0  0  0  0  0  0  0  0  0
 -182.5061   -2.5450   25.3452 C   0  0  0  0  0  0  0  0  0  0  0  0
 -183.2644   -1.9400   26.2885 O   0  0  0  0  0  0  0  0  0  0  0  0
 -182.9357   -0.8874   27.1017 C   0  0  0  0  0  0  0  0  0  0  0  0
 -183.0426    0.4106   26.3968 C   0  0  0  0  0  0  0  0  0  0  0  0
 -184.2770    1.0808   26.3028 C   0  0  0  0  0  0  0  0  0  0  0  0
 -184.0979    2.2313   25.6394 N   0  0  0  0  0  0  0  0  0  0  0  0
 -185.1092    3.2350   25.3213 C   0  0  0  0  0  0  0  0  0  0  0  0
 -185.3587    4.1237   26.4934 C   0  0  0  0  0  0  0  0  0  0  0  0
 -185.0343    5.5521   26.1669 C   0  0  0  0  0  0  0  0  0  0  0  0
 -185.9796    6.4984   26.8198 C   0  0  0  0  0  0  0  0  0  0  0  0
 -186.8917    6.1322   27.6064 O   0  0  0  0  0  0  0  0  0  0  0  0
 -185.8687    7.8823   26.5605 N   0  0  0  0  0  0  0  0  0  0  0  0
 -185.8974    8.7700   27.5669 O   0  0  0  0  0  0  0  0  0  0  0  0
 -182.8170    2.2706   25.3381 N   0  0  0  0  0  0  0  0  0  0  0  0
 -182.1977    1.2063   25.7802 N   0  0  0  0  0  0  0  0  0  0  0  0
  1  2  2  0
  2  3  1  0
  3  4  2  0
  3  5  1  0
  5  6  1  0
  6  7  2  0
  7  8  1  0
  8  9  2  0
  9 10  1  0
 10 11  1  0
 11 12  2  0
 12 13  1  0
 13 14  2  0
 14 15  1  0
 15 16  1  0
 16 17  1  0
 17 18  2  0
 18 19  1  0
 19 20  2  0
 20 21  1  0
 21 22  1  0
 21 23  2  0
 14 24  1  0
 24 25  1  0
 24 26  2  0
  9 27  1  0
 27 28  2  0
 28 29  1  0
 29 30  2  0
 30 31  1  0
 31 32  2  0
 32 33  1  0
 33 34  1  0
 34 35  1  0
 35 36  2  0
 36 37  1  0
 37 38  1  0
 38 39  1  0
 39 40  1  0
 40 41  1  0
 41 42  2  0
 41 43  1  0
 43 44  1  0
 37 45  1  0
 45 46  2  0
 32  6  1  0
 46 35  1  0
 30  8  1  0
 26 11  1  0
 23 17  1  0
M  END
$$$$
CHEMBL4228672_diffdock_1
     RDKit          3D

 37 40  0  0  0  0  0  0  0  0999 V2000
  -12.8340   18.5635  -25.1770 C   0  0  0  0  0  0  0  0  0  0  0  0
  -14.0263   18.0148  -25.2298 C   0  0  0  0  0  0  0  0  0  0  0  0
  -14.2880   16.6794  -25.7431 C   0  0  0  0  0  0  0  0  0  0  0  0
  -14.2301   16.4968  -26.9840 O   0  0  0  0  0  0  0  0  0  0  0  0
  -14.6076   15.5475  -24.9476 N   0  0  0  0  0  0  0  0  0  0  0  0
  -14.9098   14.2887  -25.5408 C   0  0  0  0  0  0  0  0  0  0  0  0
  -14.0244   13.7109  -26.4455 C   0  0  0  0  0  0  0  0  0  0  0  0
  -14.2657   12.4819  -27.0363 C   0  0  0  0  0  0  0  0  0  0  0  0
  -13.3222   11.9073  -27.9409 N   0  0  0  0  0  0  0  0  0  0  0  0
  -12.2733   12.7524  -28.4620 C   0  0  0  0  0  0  0  0  0  0  0  0
  -11.2520   12.2279  -29.1616 N   0  0  0  0  0  0  0  0  0  0  0  0
  -10.2441   12.9281  -29.6783 C   0  0  0  0  0  0  0  0  0  0  0  0
  -10.2580   14.3130  -29.4727 C   0  0  0  0  0  0  0  0  0  0  0  0
   -9.4619   15.3275  -29.8185 N   0  0  0  0  0  0  0  0  0  0  0  0
   -9.9993   16.4598  -29.3317 C   0  0  0  0  0  0  0  0  0  0  0  0
  -11.1310   16.1854  -28.6775 N   0  0  0  0  0  0  0  0  0  0  0  0
  -12.0270   17.1003  -28.0127 C   0  0  0  0  0  0  0  0  0  0  0  0
  -13.3479   16.7771  -27.8477 C   0  0  0  0  0  0  0  0  0  0  0  0
  -14.2428   17.6449  -27.2107 C   0  0  0  0  0  0  0  0  0  0  0  0
  -13.8039   18.8596  -26.7307 C   0  0  0  0  0  0  0  0  0  0  0  0
  -14.9245   19.9513  -25.9319 Cl  0  0  0  0  0  0  0  0  0  0  0  0
  -12.4793   19.1826  -26.8971 C   0  0  0  0  0  0  0  0  0  0  0  0
  -11.5908   18.3194  -27.5303 C   0  0  0  0  0  0  0  0  0  0  0  0
  -11.3027   14.8410  -28.7594 C   0  0  0  0  0  0  0  0  0  0  0  0
  -12.2993   14.0809  -28.2574 N   0  0  0  0  0  0  0  0  0  0  0  0
  -15.4089   11.7755  -26.7469 C   0  0  0  0  0  0  0  0  0  0  0  0
  -15.6298   10.5299  -27.3591 O   0  0  0  0  0  0  0  0  0  0  0  0
  -16.0932    9.4283  -26.5523 C   0  0  0  0  0  0  0  0  0  0  0  0
  -16.2898   12.3352  -25.8569 C   0  0  0  0  0  0  0  0  0  0  0  0
  -16.0526   13.5838  -25.2500 C   0  0  0  0  0  0  0  0  0  0  0  0
  -16.9749   14.0843  -24.2965 N   0  0  0  0  0  0  0  0  0  0  0  0
  -17.4899   13.2819  -23.2306 C   0  0  0  0  0  0  0  0  0  0  0  0
  -17.4042   15.4629  -24.4118 C   0  0  0  0  0  0  0  0  0  0  0  0
  -16.4128   16.4280  -23.8114 C   0  0  0  0  0  0  0  0  0  0  0  0
  -17.0482   17.1265  -22.7328 N   0  0  0  0  0  4  0  0  0  0  0  0
  -16.8035   18.5544  -22.7643 C   0  0  0  0  0  0  0  0  0  0  0  0
  -16.6787   16.6378  -21.4250 C   0  0  0  0  0  0  0  0  0  0  0  0
  1  2  2  0
  2  3  1  0
  3  4  2  0
  3  5  1  0
  5  6  1  0
  6  7  2  0
  7  8  1  0
  8  9  1  0
  9 10  1  0
 10 11  2  0
 11 12  1  0
 12 13  2  0
 13 14  1  0
 14 15  2  0
 15 16  1  0
 16 17  1  0
 17 18  2  0
 18 19  1  0
 19 20  2  0
 20 21  1  0
 20 22  1  0
 22 23  2  0
 16 24  1  0
 24 25  2  0
  8 26  2  0
 26 27  1  0
 27 28  1  0
 26 29  1  0
 29 30  2  0
 30 31  1  0
 31 32  1  0
 31 33  1  0
 33 34  1  0
 34 35  1  0
 35 36  1  0
 35 37  1  0
 30  6  1  0
 25 10  1  0
 24 13  1  0
 23 17  1  0
M  CHG  1  35   1
M  END
$$$$
CHEMBL4228672_diffdock_2
     RDKit          3D

 37 40  0  0  0  0  0  0  0  0999 V2000
  -14.8170   18.8825  -25.8004 C   0  0  0  0  0  0  0  0  0  0  0  0
  -14.8904   17.8223  -25.0284 C   0  0  0  0  0  0  0  0  0  0  0  0
  -14.9023   16.4537  -25.5204 C   0  0  0  0  0  0  0  0  0  0  0  0
  -14.9273   16.2678  -26.7619 O   0  0  0  0  0  0  0  0  0  0  0  0
  -14.8868   15.2926  -24.7033 N   0  0  0  0  0  0  0  0  0  0  0  0
  -15.1008   13.9975  -25.2553 C   0  0  0  0  0  0  0  0  0  0  0  0
  -14.3674   13.5782  -26.3610 C   0  0  0  0  0  0  0  0  0  0  0  0
  -14.5275   12.3230  -26.9237 C   0  0  0  0  0  0  0  0  0  0  0  0
  -13.7391   11.9170  -28.0427 N   0  0  0  0  0  0  0  0  0  0  0  0
  -12.6848   12.7966  -28.4907 C   0  0  0  0  0  0  0  0  0  0  0  0
  -11.6488   12.3204  -29.2031 N   0  0  0  0  0  0  0  0  0  0  0  0
  -10.6349   13.0550  -29.6565 C   0  0  0  0  0  0  0  0  0  0  0  0
  -10.6588   14.4243  -29.3650 C   0  0  0  0  0  0  0  0  0  0  0  0
   -9.8612   15.4612  -29.6321 N   0  0  0  0  0  0  0  0  0  0  0  0
  -10.4123   16.5589  -29.0853 C   0  0  0  0  0  0  0  0  0  0  0  0
  -11.5543   16.2402  -28.4702 N   0  0  0  0  0  0  0  0  0  0  0  0
  -12.4662   17.1087  -27.7659 C   0  0  0  0  0  0  0  0  0  0  0  0
  -12.6217   18.4120  -28.1581 C   0  0  0  0  0  0  0  0  0  0  0  0
  -13.4953   19.2803  -27.4929 C   0  0  0  0  0  0  0  0  0  0  0  0
  -14.2260   18.8324  -26.4141 C   0  0  0  0  0  0  0  0  0  0  0  0
  -15.3223   19.9198  -25.5765 Cl  0  0  0  0  0  0  0  0  0  0  0  0
  -14.0689   17.5256  -26.0216 C   0  0  0  0  0  0  0  0  0  0  0  0
  -13.2004   16.6634  -26.6834 C   0  0  0  0  0  0  0  0  0  0  0  0
  -11.7184   14.9031  -28.6392 C   0  0  0  0  0  0  0  0  0  0  0  0
  -12.7204   14.1096  -28.2040 N   0  0  0  0  0  0  0  0  0  0  0  0
  -15.4332   11.4298  -26.4027 C   0  0  0  0  0  0  0  0  0  0  0  0
  -15.5760   10.1617  -26.9915 O   0  0  0  0  0  0  0  0  0  0  0  0
  -16.6027    9.2762  -26.5008 C   0  0  0  0  0  0  0  0  0  0  0  0
  -16.1627   11.8320  -25.3129 C   0  0  0  0  0  0  0  0  0  0  0  0
  -16.0060   13.1058  -24.7329 C   0  0  0  0  0  0  0  0  0  0  0  0
  -16.7501   13.4427  -23.5740 N   0  0  0  0  0  0  0  0  0  0  0  0
  -16.7694   12.6175  -22.4062 C   0  0  0  0  0  0  0  0  0  0  0  0
  -17.5146   14.6730  -23.5804 C   0  0  0  0  0  0  0  0  0  0  0  0
  -18.8375   14.5265  -24.2900 C   0  0  0  0  0  0  0  0  0  0  0  0
  -19.5750   15.7468  -24.1418 N   0  0  0  0  0  4  0  0  0  0  0  0
  -20.2087   15.8682  -22.8443 C   0  0  0  0  0  0  0  0  0  0  0  0
  -20.5866   15.9422  -25.1539 C   0  0  0  0  0  0  0  0  0  0  0  0
  1  2  2  0
  2  3  1  0
  3  4  2  0
  3  5  1  0
  5  6  1  0
  6  7  2  0
  7  8  1  0
  8  9  1  0
  9 10  1  0
 10 11  2  0
 11 12  1  0
 12 13  2  0
 13 14  1  0
 14 15  2  0
 15 16  1  0
 16 17  1  0
 17 18  2  0
 18 19  1  0
 19 20  2  0
 20 21  1  0
 20 22  1  0
 22 23  2  0
 16 24  1  0
 24 25  2  0
  8 26  2  0
 26 27  1  0
 27 28  1  0
 26 29  1  0
 29 30  2  0
 30 31  1  0
 31 32  1  0
 31 33  1  0
 33 34  1  0
 34 35  1  0
 35 36  1  0
 35 37  1  0
 30  6  1  0
 25 10  1  0
 24 13  1  0
 23 17  1  0
M  CHG  1  35   1
M  END
$$$$
CHEMBL4228672_diffdock_3
     RDKit          3D

 37 40  0  0  0  0  0  0  0  0999 V2000
  -13.9615   18.5176  -25.0557 C   0  0  0  0  0  0  0  0  0  0  0  0
  -13.7932   17.2702  -24.6800 C   0  0  0  0  0  0  0  0  0  0  0  0
  -14.3854   16.1271  -25.3568 C   0  0  0  0  0  0  0  0  0  0  0  0
  -14.3448   16.0917  -26.6113 O   0  0  0  0  0  0  0  0  0  0  0  0
  -15.0143   15.0312  -24.7092 N   0  0  0  0  0  0  0  0  0  0  0  0
  -15.3890   13.8622  -25.4310 C   0  0  0  0  0  0  0  0  0  0  0  0
  -14.6253   13.4323  -26.5119 C   0  0  0  0  0  0  0  0  0  0  0  0
  -14.9392   12.2936  -27.2346 C   0  0  0  0  0  0  0  0  0  0  0  0
  -14.1179   11.8681  -28.3224 N   0  0  0  0  0  0  0  0  0  0  0  0
  -12.9649   12.6688  -28.6619 C   0  0  0  0  0  0  0  0  0  0  0  0
  -11.9166   12.1261  -29.3052 N   0  0  0  0  0  0  0  0  0  0  0  0
  -10.8148   12.7857  -29.6574 C   0  0  0  0  0  0  0  0  0  0  0  0
  -10.7531   14.1456  -29.3295 C   0  0  0  0  0  0  0  0  0  0  0  0
   -9.8571   15.1198  -29.5041 N   0  0  0  0  0  0  0  0  0  0  0  0
  -10.3612   16.2463  -28.9704 C   0  0  0  0  0  0  0  0  0  0  0  0
  -11.5702   16.0078  -28.4551 N   0  0  0  0  0  0  0  0  0  0  0  0
  -12.4635   16.9315  -27.7989 C   0  0  0  0  0  0  0  0  0  0  0  0
  -12.4333   18.2644  -28.1140 C   0  0  0  0  0  0  0  0  0  0  0  0
  -13.2842   19.1860  -27.4923 C   0  0  0  0  0  0  0  0  0  0  0  0
  -14.1816   18.7621  -26.5366 C   0  0  0  0  0  0  0  0  0  0  0  0
  -15.2498   19.9161  -25.7538 Cl  0  0  0  0  0  0  0  0  0  0  0  0
  -14.2105   17.4255  -26.2213 C   0  0  0  0  0  0  0  0  0  0  0  0
  -13.3645   16.5105  -26.8398 C   0  0  0  0  0  0  0  0  0  0  0  0
  -11.8259   14.6926  -28.6746 C   0  0  0  0  0  0  0  0  0  0  0  0
  -12.9191   13.9736  -28.3412 N   0  0  0  0  0  0  0  0  0  0  0  0
  -16.0362   11.5332  -26.9063 C   0  0  0  0  0  0  0  0  0  0  0  0
  -16.3326   10.3814  -27.6551 O   0  0  0  0  0  0  0  0  0  0  0  0
  -17.5179    9.6259  -27.3333 C   0  0  0  0  0  0  0  0  0  0  0  0
  -16.7973   11.9472  -25.8429 C   0  0  0  0  0  0  0  0  0  0  0  0
  -16.4854   13.1030  -25.1010 C   0  0  0  0  0  0  0  0  0  0  0  0
  -17.2794   13.4487  -23.9785 N   0  0  0  0  0  0  0  0  0  0  0  0
  -17.8658   14.7436  -23.8213 C   0  0  0  0  0  0  0  0  0  0  0  0
  -17.5027   12.4453  -22.9579 C   0  0  0  0  0  0  0  0  0  0  0  0
  -18.8982   11.8750  -23.0053 C   0  0  0  0  0  0  0  0  0  0  0  0
  -19.0071   10.8461  -22.0130 N   0  0  0  0  0  4  0  0  0  0  0  0
  -18.7354    9.5239  -22.5401 C   0  0  0  0  0  0  0  0  0  0  0  0
  -20.2902   10.8090  -21.3511 C   0  0  0  0  0  0  0  0  0  0  0  0
  1  2  2  0
  2  3  1  0
  3  4  2  0
  3  5  1  0
  5  6  1  0
  6  7  2  0
  7  8  1  0
  8  9  1  0
  9 10  1  0
 10 11  2  0
 11 12  1  0
 12 13  2  0
 13 14  1  0
 14 15  2  0
 15 16  1  0
 16 17  1  0
 17 18  2  0
 18 19  1  0
 19 20  2  0
 20 21  1  0
 20 22  1  0
 22 23  2  0
 16 24  1  0
 24 25  2  0
  8 26  2  0
 26 27  1  0
 27 28  1  0
 26 29  1  0
 29 30  2  0
 30 31  1  0
 31 32  1  0
 31 33  1  0
 33 34  1  0
 34 35  1  0
 35 36  1  0
 35 37  1  0
 30  6  1  0
 25 10  1  0
 24 13  1  0
 23 17  1  0
M  CHG  1  35   1
M  END
$$$$
CHEMBL4228672_diffdock_4
     RDKit          3D

 37 40  0  0  0  0  0  0  0  0999 V2000
  -15.8246   18.6377  -24.3855 C   0  0  0  0  0  0  0  0  0  0  0  0
  -14.7749   17.9102  -24.6922 C   0  0  0  0  0  0  0  0  0  0  0  0
  -14.8459   16.5889  -25.2960 C   0  0  0  0  0  0  0  0  0  0  0  0
  -14.9570   16.5102  -26.5442 O   0  0  0  0  0  0  0  0  0  0  0  0
  -14.7986   15.3621  -24.5826 N   0  0  0  0  0  0  0  0  0  0  0  0
  -14.9870   14.1150  -25.2438 C   0  0  0  0  0  0  0  0  0  0  0  0
  -14.1694   13.7587  -26.3119 C   0  0  0  0  0  0  0  0  0  0  0  0
  -14.3026   12.5510  -26.9762 C   0  0  0  0  0  0  0  0  0  0  0  0
  -13.4289   12.2076  -28.0520 N   0  0  0  0  0  0  0  0  0  0  0  0
  -12.5319   13.2221  -28.5540 C   0  0  0  0  0  0  0  0  0  0  0  0
  -11.4974   12.8933  -29.3474 N   0  0  0  0  0  0  0  0  0  0  0  0
  -10.6221   13.7589  -29.8550 C   0  0  0  0  0  0  0  0  0  0  0  0
  -10.8010   15.1098  -29.5334 C   0  0  0  0  0  0  0  0  0  0  0  0
  -10.1649   16.2447  -29.8335 N   0  0  0  0  0  0  0  0  0  0  0  0
  -10.8118   17.2548  -29.2260 C   0  0  0  0  0  0  0  0  0  0  0  0
  -11.8558   16.7829  -28.5393 N   0  0  0  0  0  0  0  0  0  0  0  0
  -12.8186   17.5169  -27.7543 C   0  0  0  0  0  0  0  0  0  0  0  0
  -13.1676   17.0804  -26.5036 C   0  0  0  0  0  0  0  0  0  0  0  0
  -14.1013   17.7681  -25.7193 C   0  0  0  0  0  0  0  0  0  0  0  0
  -14.6957   18.9147  -26.1993 C   0  0  0  0  0  0  0  0  0  0  0  0
  -15.8685   19.7793  -25.2181 Cl  0  0  0  0  0  0  0  0  0  0  0  0
  -14.3452   19.3511  -27.4536 C   0  0  0  0  0  0  0  0  0  0  0  0
  -13.4171   18.6669  -28.2322 C   0  0  0  0  0  0  0  0  0  0  0  0
  -11.8581   15.4380  -28.7249 C   0  0  0  0  0  0  0  0  0  0  0  0
  -12.7155   14.5158  -28.2375 N   0  0  0  0  0  0  0  0  0  0  0  0
  -15.2646   11.6442  -26.5995 C   0  0  0  0  0  0  0  0  0  0  0  0
  -15.3786   10.4251  -27.2893 O   0  0  0  0  0  0  0  0  0  0  0  0
  -16.6751    9.8035  -27.3982 C   0  0  0  0  0  0  0  0  0  0  0  0
  -16.0773   11.9845  -25.5481 C   0  0  0  0  0  0  0  0  0  0  0  0
  -15.9486   13.2096  -24.8655 C   0  0  0  0  0  0  0  0  0  0  0  0
  -16.7827   13.4803  -23.7514 N   0  0  0  0  0  0  0  0  0  0  0  0
  -16.8929   12.5882  -22.6391 C   0  0  0  0  0  0  0  0  0  0  0  0
  -17.5466   14.7110  -23.7463 C   0  0  0  0  0  0  0  0  0  0  0  0
  -18.8042   14.6128  -24.5732 C   0  0  0  0  0  0  0  0  0  0  0  0
  -19.9269   14.9288  -23.7397 N   0  0  0  0  0  4  0  0  0  0  0  0
  -21.1979   14.7247  -24.4051 C   0  0  0  0  0  0  0  0  0  0  0  0
  -19.9052   16.2760  -23.2199 C   0  0  0  0  0  0  0  0  0  0  0  0
  1  2  2  0
  2  3  1  0
  3  4  2  0
  3  5  1  0
  5  6  1  0
  6  7  2  0
  7  8  1  0
  8  9  1  0
  9 10  1  0
 10 11  2  0
 11 12  1  0
 12 13  2  0
 13 14  1  0
 14 15  2  0
 15 16  1  0
 16 17  1  0
 17 18  2  0
 18 19  1  0
 19 20  2  0
 20 21  1  0
 20 22  1  0
 22 23  2  0
 16 24  1  0
 24 25  2  0
  8 26  2  0
 26 27  1  0
 27 28  1  0
 26 29  1  0
 29 30  2  0
 30 31  1  0
 31 32  1  0
 31 33  1  0
 33 34  1  0
 34 35  1  0
 35 36  1  0
 35 37  1  0
 30  6  1  0
 25 10  1  0
 24 13  1  0
 23 17  1  0
M  CHG  1  35   1
M  END
$$$$
CHEMBL4228672_diffdock_5
     RDKit          3D

 37 40  0  0  0  0  0  0  0  0999 V2000
  -14.7056   18.2010  -23.4678 C   0  0  0  0  0  0  0  0  0  0  0  0
  -14.2520   17.0494  -23.0278 C   0  0  0  0  0  0  0  0  0  0  0  0
  -14.3030   15.8089  -23.7854 C   0  0  0  0  0  0  0  0  0  0  0  0
  -13.4336   14.9334  -23.5528 O   0  0  0  0  0  0  0  0  0  0  0  0
  -15.2678   15.4994  -24.7801 N   0  0  0  0  0  0  0  0  0  0  0  0
  -15.3485   14.1976  -25.3516 C   0  0  0  0  0  0  0  0  0  0  0  0
  -14.3013   13.7068  -26.1254 C   0  0  0  0  0  0  0  0  0  0  0  0
  -14.3257   12.4421  -26.6887 C   0  0  0  0  0  0  0  0  0  0  0  0
  -13.2216   11.9616  -27.4561 N   0  0  0  0  0  0  0  0  0  0  0  0
  -12.4032   12.9259  -28.1535 C   0  0  0  0  0  0  0  0  0  0  0  0
  -11.4575   12.5252  -29.0210 N   0  0  0  0  0  0  0  0  0  0  0  0
  -10.6587   13.3406  -29.7067 C   0  0  0  0  0  0  0  0  0  0  0  0
  -10.8241   14.7159  -29.5028 C   0  0  0  0  0  0  0  0  0  0  0  0
  -10.2448   15.8187  -29.9833 N   0  0  0  0  0  0  0  0  0  0  0  0
  -10.8377   16.8808  -29.4106 C   0  0  0  0  0  0  0  0  0  0  0  0
  -11.7910   16.4741  -28.5680 N   0  0  0  0  0  0  0  0  0  0  0  0
  -12.6734   17.2775  -27.7570 C   0  0  0  0  0  0  0  0  0  0  0  0
  -13.2863   16.7364  -26.6579 C   0  0  0  0  0  0  0  0  0  0  0  0
  -14.1507   17.4886  -25.8536 C   0  0  0  0  0  0  0  0  0  0  0  0
  -14.4047   18.8081  -26.1582 C   0  0  0  0  0  0  0  0  0  0  0  0
  -15.4896   19.7544  -25.1517 Cl  0  0  0  0  0  0  0  0  0  0  0  0
  -13.7898   19.3494  -27.2607 C   0  0  0  0  0  0  0  0  0  0  0  0
  -12.9309   18.6009  -28.0594 C   0  0  0  0  0  0  0  0  0  0  0  0
  -11.7907   15.1174  -28.6177 C   0  0  0  0  0  0  0  0  0  0  0  0
  -12.5729   14.2437  -27.9484 N   0  0  0  0  0  0  0  0  0  0  0  0
  -15.4042   11.6104  -26.5021 C   0  0  0  0  0  0  0  0  0  0  0  0
  -15.4040   10.3310  -27.0837 O   0  0  0  0  0  0  0  0  0  0  0  0
  -16.6490    9.7806  -27.5593 C   0  0  0  0  0  0  0  0  0  0  0  0
  -16.4432   12.0833  -25.7415 C   0  0  0  0  0  0  0  0  0  0  0  0
  -16.4270   13.3675  -25.1635 C   0  0  0  0  0  0  0  0  0  0  0  0
  -17.5072   13.7782  -24.3422 N   0  0  0  0  0  0  0  0  0  0  0  0
  -18.8539   13.8430  -24.8190 C   0  0  0  0  0  0  0  0  0  0  0  0
  -17.2278   14.1415  -22.9681 C   0  0  0  0  0  0  0  0  0  0  0  0
  -18.4783   14.2324  -22.1297 C   0  0  0  0  0  0  0  0  0  0  0  0
  -18.7474   12.9420  -21.5661 N   0  0  0  0  0  4  0  0  0  0  0  0
  -19.8508   12.9563  -20.6270 C   0  0  0  0  0  0  0  0  0  0  0  0
  -17.6083   12.3447  -20.9092 C   0  0  0  0  0  0  0  0  0  0  0  0
  1  2  2  0
  2  3  1  0
  3  4  2  0
  3  5  1  0
  5  6  1  0
  6  7  2  0
  7  8  1  0
  8  9  1  0
  9 10  1  0
 10 11  2  0
 11 12  1  0
 12 13  2  0
 13 14  1  0
 14 15  2  0
 15 16  1  0
 16 17  1  0
 17 18  2  0
 18 19  1  0
 19 20  2  0
 20 21  1  0
 20 22  1  0
 22 23  2  0
 16 24  1  0
 24 25  2  0
  8 26  2  0
 26 27  1  0
 27 28  1  0
 26 29  1  0
 29 30  2  0
 30 31  1  0
 31 32  1  0
 31 33  1  0
 33 34  1  0
 34 35  1  0
 35 36  1  0
 35 37  1  0
 30  6  1  0
 25 10  1  0
 24 13  1  0
 23 17  1  0
M  CHG  1  35   1
M  END
$$$$
CHEMBL4228672_diffdock_6
     RDKit          3D

 37 40  0  0  0  0  0  0  0  0999 V2000
  -12.5592   18.1928  -24.0421 C   0  0  0  0  0  0  0  0  0  0  0  0
  -13.7873   17.7563  -24.2055 C   0  0  0  0  0  0  0  0  0  0  0  0
  -14.1292   16.5172  -24.8861 C   0  0  0  0  0  0  0  0  0  0  0  0
  -13.8146   16.3962  -26.0956 O   0  0  0  0  0  0  0  0  0  0  0  0
  -14.7979   15.4160  -24.2892 N   0  0  0  0  0  0  0  0  0  0  0  0
  -15.0620   14.2252  -25.0240 C   0  0  0  0  0  0  0  0  0  0  0  0
  -14.2117   13.8356  -26.0544 C   0  0  0  0  0  0  0  0  0  0  0  0
  -14.4168   12.6784  -26.7868 C   0  0  0  0  0  0  0  0  0  0  0  0
  -13.5091   12.2963  -27.8205 N   0  0  0  0  0  0  0  0  0  0  0  0
  -12.5797   13.2858  -28.3136 C   0  0  0  0  0  0  0  0  0  0  0  0
  -11.5636   12.9326  -29.1201 N   0  0  0  0  0  0  0  0  0  0  0  0
  -10.6614   13.7741  -29.6210 C   0  0  0  0  0  0  0  0  0  0  0  0
  -10.7890   15.1253  -29.2770 C   0  0  0  0  0  0  0  0  0  0  0  0
  -10.1146   16.2412  -29.5643 N   0  0  0  0  0  0  0  0  0  0  0  0
  -10.7202   17.2642  -28.9362 C   0  0  0  0  0  0  0  0  0  0  0  0
  -11.7755   16.8193  -28.2487 N   0  0  0  0  0  0  0  0  0  0  0  0
  -12.7054   17.5749  -27.4448 C   0  0  0  0  0  0  0  0  0  0  0  0
  -13.5652   16.9318  -26.5941 C   0  0  0  0  0  0  0  0  0  0  0  0
  -14.4815   17.6363  -25.8043 C   0  0  0  0  0  0  0  0  0  0  0  0
  -14.5360   19.0115  -25.8698 C   0  0  0  0  0  0  0  0  0  0  0  0
  -15.6854   19.8984  -24.8808 Cl  0  0  0  0  0  0  0  0  0  0  0  0
  -13.6737   19.6550  -26.7234 C   0  0  0  0  0  0  0  0  0  0  0  0
  -12.7634   18.9539  -27.5079 C   0  0  0  0  0  0  0  0  0  0  0  0
  -11.8277   15.4784  -28.4552 C   0  0  0  0  0  0  0  0  0  0  0  0
  -12.7142   14.5800  -27.9755 N   0  0  0  0  0  0  0  0  0  0  0  0
  -15.4870   11.8580  -26.5193 C   0  0  0  0  0  0  0  0  0  0  0  0
  -15.6724   10.6886  -27.2765 O   0  0  0  0  0  0  0  0  0  0  0  0
  -16.8261    9.8641  -27.0156 C   0  0  0  0  0  0  0  0  0  0  0  0
  -16.3327   12.2319  -25.5062 C   0  0  0  0  0  0  0  0  0  0  0  0
  -16.1316   13.4061  -24.7549 C   0  0  0  0  0  0  0  0  0  0  0  0
  -17.0098   13.7101  -23.6842 N   0  0  0  0  0  0  0  0  0  0  0  0
  -17.2395   12.8079  -22.5987 C   0  0  0  0  0  0  0  0  0  0  0  0
  -17.6942   14.9867  -23.6965 C   0  0  0  0  0  0  0  0  0  0  0  0
  -18.9540   14.9580  -24.5253 C   0  0  0  0  0  0  0  0  0  0  0  0
  -19.8267   16.0000  -24.0696 N   0  0  0  0  0  4  0  0  0  0  0  0
  -21.1223   15.9737  -24.7179 C   0  0  0  0  0  0  0  0  0  0  0  0
  -19.2774   17.3271  -24.2208 C   0  0  0  0  0  0  0  0  0  0  0  0
  1  2  2  0
  2  3  1  0
  3  4  2  0
  3  5  1  0
  5  6  1  0
  6  7  2  0
  7  8  1  0
  8  9  1  0
  9 10  1  0
 10 11  2  0
 11 12  1  0
 12 13  2  0
 13 14  1  0
 14 15  2  0
 15 16  1  0
 16 17  1  0
 17 18  2  0
 18 19  1  0
 19 20  2  0
 20 21  1  0
 20 22  1  0
 22 23  2  0
 16 24  1  0
 24 25  2  0
  8 26  2  0
 26 27  1  0
 27 28  1  0
 26 29  1  0
 29 30  2  0
 30 31  1  0
 31 32  1  0
 31 33  1  0
 33 34  1  0
 34 35  1  0
 35 36  1  0
 35 37  1  0
 30  6  1  0
 25 10  1  0
 24 13  1  0
 23 17  1  0
M  CHG  1  35   1
M  END
$$$$
CHEMBL4228672_diffdock_7
     RDKit          3D

 37 40  0  0  0  0  0  0  0  0999 V2000
  -14.5148   19.7495  -25.7458 C   0  0  0  0  0  0  0  0  0  0  0  0
  -15.0281   18.6575  -25.2269 C   0  0  0  0  0  0  0  0  0  0  0  0
  -14.5810   17.3118  -25.5507 C   0  0  0  0  0  0  0  0  0  0  0  0
  -13.8660   17.1515  -26.5703 O   0  0  0  0  0  0  0  0  0  0  0  0
  -14.8886   16.1468  -24.7995 N   0  0  0  0  0  0  0  0  0  0  0  0
  -15.1360   14.8989  -25.4393 C   0  0  0  0  0  0  0  0  0  0  0  0
  -14.1765   14.3401  -26.2779 C   0  0  0  0  0  0  0  0  0  0  0  0
  -14.3634   13.1220  -26.9095 C   0  0  0  0  0  0  0  0  0  0  0  0
  -13.3460   12.5666  -27.7433 N   0  0  0  0  0  0  0  0  0  0  0  0
  -12.4071   13.4686  -28.3684 C   0  0  0  0  0  0  0  0  0  0  0  0
  -11.3883   12.9962  -29.1076 N   0  0  0  0  0  0  0  0  0  0  0  0
  -10.4774   13.7508  -29.7191 C   0  0  0  0  0  0  0  0  0  0  0  0
  -10.5984   15.1384  -29.5762 C   0  0  0  0  0  0  0  0  0  0  0  0
   -9.9150   16.1969  -30.0180 N   0  0  0  0  0  0  0  0  0  0  0  0
  -10.5178   17.3037  -29.5498 C   0  0  0  0  0  0  0  0  0  0  0  0
  -11.5803   16.9694  -28.8125 N   0  0  0  0  0  0  0  0  0  0  0  0
  -12.5103   17.8391  -28.1338 C   0  0  0  0  0  0  0  0  0  0  0  0
  -13.0942   17.4448  -26.9590 C   0  0  0  0  0  0  0  0  0  0  0  0
  -14.0032   18.2640  -26.2790 C   0  0  0  0  0  0  0  0  0  0  0  0
  -14.3323   19.5015  -26.7876 C   0  0  0  0  0  0  0  0  0  0  0  0
  -15.4734   20.5314  -25.9373 Cl  0  0  0  0  0  0  0  0  0  0  0  0
  -13.7465   19.8955  -27.9658 C   0  0  0  0  0  0  0  0  0  0  0  0
  -12.8432   19.0806  -28.6408 C   0  0  0  0  0  0  0  0  0  0  0  0
  -11.6399   15.6131  -28.8221 C   0  0  0  0  0  0  0  0  0  0  0  0
  -12.5353   14.7990  -28.2232 N   0  0  0  0  0  0  0  0  0  0  0  0
  -15.5241   12.4079  -26.7294 C   0  0  0  0  0  0  0  0  0  0  0  0
  -15.6889   11.1737  -27.3811 O   0  0  0  0  0  0  0  0  0  0  0  0
  -16.0309   10.0118  -26.5987 C   0  0  0  0  0  0  0  0  0  0  0  0
  -16.4779   12.9489  -25.9053 C   0  0  0  0  0  0  0  0  0  0  0  0
  -16.2964   14.1862  -25.2576 C   0  0  0  0  0  0  0  0  0  0  0  0
  -17.2964   14.6667  -24.3748 N   0  0  0  0  0  0  0  0  0  0  0  0
  -18.1590   15.7568  -24.7108 C   0  0  0  0  0  0  0  0  0  0  0  0
  -17.4455   14.0211  -23.0867 C   0  0  0  0  0  0  0  0  0  0  0  0
  -16.2440   14.2231  -22.1977 C   0  0  0  0  0  0  0  0  0  0  0  0
  -16.6031   15.1189  -21.1377 N   0  0  0  0  0  4  0  0  0  0  0  0
  -15.5034   15.3932  -20.2349 C   0  0  0  0  0  0  0  0  0  0  0  0
  -17.7268   14.6682  -20.3503 C   0  0  0  0  0  0  0  0  0  0  0  0
  1  2  2  0
  2  3  1  0
  3  4  2  0
  3  5  1  0
  5  6  1  0
  6  7  2  0
  7  8  1  0
  8  9  1  0
  9 10  1  0
 10 11  2  0
 11 12  1  0
 12 13  2  0
 13 14  1  0
 14 15  2  0
 15 16  1  0
 16 17  1  0
 17 18  2  0
 18 19  1  0
 19 20  2  0
 20 21  1  0
 20 22  1  0
 22 23  2  0
 16 24  1  0
 24 25  2  0
  8 26  2  0
 26 27  1  0
 27 28  1  0
 26 29  1  0
 29 30  2  0
 30 31  1  0
 31 32  1  0
 31 33  1  0
 33 34  1  0
 34 35  1  0
 35 36  1  0
 35 37  1  0
 30  6  1  0
 25 10  1  0
 24 13  1  0
 23 17  1  0
M  CHG  1  35   1
M  END
$$$$
CHEMBL4228672_diffdock_8
     RDKit          3D

 37 40  0  0  0  0  0  0  0  0999 V2000
  -15.0142   19.0567  -24.6897 C   0  0  0  0  0  0  0  0  0  0  0  0
  -14.1151   18.0993  -24.6753 C   0  0  0  0  0  0  0  0  0  0  0  0
  -14.3259   16.7734  -25.2346 C   0  0  0  0  0  0  0  0  0  0  0  0
  -14.4236   16.6620  -26.4814 O   0  0  0  0  0  0  0  0  0  0  0  0
  -14.4314   15.5761  -24.4786 N   0  0  0  0  0  0  0  0  0  0  0  0
  -14.6170   14.3151  -25.1135 C   0  0  0  0  0  0  0  0  0  0  0  0
  -13.7347   13.8933  -26.1034 C   0  0  0  0  0  0  0  0  0  0  0  0
  -13.8635   12.6695  -26.7384 C   0  0  0  0  0  0  0  0  0  0  0  0
  -12.9242   12.2584  -27.7320 N   0  0  0  0  0  0  0  0  0  0  0  0
  -12.1222   13.2728  -28.3751 C   0  0  0  0  0  0  0  0  0  0  0  0
  -11.3004   12.9573  -29.3913 N   0  0  0  0  0  0  0  0  0  0  0  0
  -10.5263   13.8239  -30.0417 C   0  0  0  0  0  0  0  0  0  0  0  0
  -10.5795   15.1610  -29.6296 C   0  0  0  0  0  0  0  0  0  0  0  0
   -9.9831   16.2923  -30.0131 N   0  0  0  0  0  0  0  0  0  0  0  0
  -10.4425   17.2871  -29.2340 C   0  0  0  0  0  0  0  0  0  0  0  0
  -11.3269   16.8089  -28.3546 N   0  0  0  0  0  0  0  0  0  0  0  0
  -12.0656   17.5274  -27.3446 C   0  0  0  0  0  0  0  0  0  0  0  0
  -11.4305   18.4338  -26.5373 C   0  0  0  0  0  0  0  0  0  0  0  0
  -12.1184   19.1437  -25.5460 C   0  0  0  0  0  0  0  0  0  0  0  0
  -13.4685   18.9397  -25.3614 C   0  0  0  0  0  0  0  0  0  0  0  0
  -14.3344   19.8280  -24.1176 Cl  0  0  0  0  0  0  0  0  0  0  0  0
  -14.1040   18.0304  -26.1712 C   0  0  0  0  0  0  0  0  0  0  0  0
  -13.4194   17.3255  -27.1561 C   0  0  0  0  0  0  0  0  0  0  0  0
  -11.4202   15.4757  -28.5937 C   0  0  0  0  0  0  0  0  0  0  0  0
  -12.1833   14.5531  -27.9695 N   0  0  0  0  0  0  0  0  0  0  0  0
  -14.8860   11.8115  -26.4096 C   0  0  0  0  0  0  0  0  0  0  0  0
  -14.9942   10.5747  -27.0681 O   0  0  0  0  0  0  0  0  0  0  0  0
  -16.2303   10.2438  -27.7327 C   0  0  0  0  0  0  0  0  0  0  0  0
  -15.7627   12.2164  -25.4354 C   0  0  0  0  0  0  0  0  0  0  0  0
  -15.6391   13.4585  -24.7831 C   0  0  0  0  0  0  0  0  0  0  0  0
  -16.5447   13.7968  -23.7460 N   0  0  0  0  0  0  0  0  0  0  0  0
  -16.7580   12.9576  -22.6078 C   0  0  0  0  0  0  0  0  0  0  0  0
  -17.2755   15.0432  -23.8496 C   0  0  0  0  0  0  0  0  0  0  0  0
  -18.4814   15.0818  -22.9445 C   0  0  0  0  0  0  0  0  0  0  0  0
  -19.5848   15.6345  -23.6740 N   0  0  0  0  0  4  0  0  0  0  0  0
  -19.4932   17.0722  -23.8307 C   0  0  0  0  0  0  0  0  0  0  0  0
  -20.8741   15.3282  -23.0999 C   0  0  0  0  0  0  0  0  0  0  0  0
  1  2  2  0
  2  3  1  0
  3  4  2  0
  3  5  1  0
  5  6  1  0
  6  7  2  0
  7  8  1  0
  8  9  1  0
  9 10  1  0
 10 11  2  0
 11 12  1  0
 12 13  2  0
 13 14  1  0
 14 15  2  0
 15 16  1  0
 16 17  1  0
 17 18  2  0
 18 19  1  0
 19 20  2  0
 20 21  1  0
 20 22  1  0
 22 23  2  0
 16 24  1  0
 24 25  2  0
  8 26  2  0
 26 27  1  0
 27 28  1  0
 26 29  1  0
 29 30  2  0
 30 31  1  0
 31 32  1  0
 31 33  1  0
 33 34  1  0
 34 35  1  0
 35 36  1  0
 35 37  1  0
 30  6  1  0
 25 10  1  0
 24 13  1  0
 23 17  1  0
M  CHG  1  35   1
M  END
$$$$
CHEMBL4228672_diffdock_9
     RDKit          3D

 37 40  0  0  0  0  0  0  0  0999 V2000
  -12.5289   18.5894  -23.2323 C   0  0  0  0  0  0  0  0  0  0  0  0
  -13.6805   18.0625  -23.5814 C   0  0  0  0  0  0  0  0  0  0  0  0
  -13.8200   16.9325  -24.4864 C   0  0  0  0  0  0  0  0  0  0  0  0
  -12.7982   16.2526  -24.7514 O   0  0  0  0  0  0  0  0  0  0  0  0
  -15.0324   16.5267  -25.1041 N   0  0  0  0  0  0  0  0  0  0  0  0
  -15.2021   15.2025  -25.5996 C   0  0  0  0  0  0  0  0  0  0  0  0
  -14.1769   14.5837  -26.3083 C   0  0  0  0  0  0  0  0  0  0  0  0
  -14.2877   13.2924  -26.7961 C   0  0  0  0  0  0  0  0  0  0  0  0
  -13.2051   12.6798  -27.4971 N   0  0  0  0  0  0  0  0  0  0  0  0
  -12.2971   13.5308  -28.2299 C   0  0  0  0  0  0  0  0  0  0  0  0
  -11.4126   13.0072  -29.0965 N   0  0  0  0  0  0  0  0  0  0  0  0
  -10.5400   13.7126  -29.8133 C   0  0  0  0  0  0  0  0  0  0  0  0
  -10.5525   15.1027  -29.6456 C   0  0  0  0  0  0  0  0  0  0  0  0
   -9.8640   16.1230  -30.1629 N   0  0  0  0  0  0  0  0  0  0  0  0
  -10.3303   17.2579  -29.6131 C   0  0  0  0  0  0  0  0  0  0  0  0
  -11.3101   16.9794  -28.7490 N   0  0  0  0  0  0  0  0  0  0  0  0
  -12.0887   17.8950  -27.9507 C   0  0  0  0  0  0  0  0  0  0  0  0
  -13.0799   17.4256  -27.1298 C   0  0  0  0  0  0  0  0  0  0  0  0
  -13.8552   18.2886  -26.3461 C   0  0  0  0  0  0  0  0  0  0  0  0
  -13.6317   19.6475  -26.3875 C   0  0  0  0  0  0  0  0  0  0  0  0
  -14.6035   20.7332  -25.4063 Cl  0  0  0  0  0  0  0  0  0  0  0  0
  -12.6379   20.1169  -27.2113 C   0  0  0  0  0  0  0  0  0  0  0  0
  -11.8680   19.2584  -27.9896 C   0  0  0  0  0  0  0  0  0  0  0  0
  -11.4574   15.6298  -28.7613 C   0  0  0  0  0  0  0  0  0  0  0  0
  -12.3201   14.8642  -28.0594 N   0  0  0  0  0  0  0  0  0  0  0  0
  -15.4347   12.5617  -26.5958 C   0  0  0  0  0  0  0  0  0  0  0  0
  -15.5218   11.2529  -27.1001 O   0  0  0  0  0  0  0  0  0  0  0  0
  -16.8190   10.6338  -27.2140 C   0  0  0  0  0  0  0  0  0  0  0  0
  -16.4528   13.1613  -25.8990 C   0  0  0  0  0  0  0  0  0  0  0  0
  -16.3490   14.4734  -25.3980 C   0  0  0  0  0  0  0  0  0  0  0  0
  -17.4149   15.0182  -24.6382 N   0  0  0  0  0  0  0  0  0  0  0  0
  -18.7859   14.7175  -24.9120 C   0  0  0  0  0  0  0  0  0  0  0  0
  -17.0940   15.9100  -23.5428 C   0  0  0  0  0  0  0  0  0  0  0  0
  -16.9743   15.1856  -22.2253 C   0  0  0  0  0  0  0  0  0  0  0  0
  -17.5849   15.9860  -21.2047 N   0  0  0  0  0  4  0  0  0  0  0  0
  -18.5599   16.9207  -21.7296 C   0  0  0  0  0  0  0  0  0  0  0  0
  -16.6397   16.7280  -20.4035 C   0  0  0  0  0  0  0  0  0  0  0  0
  1  2  2  0
  2  3  1  0
  3  4  2  0
  3  5  1  0
  5  6  1  0
  6  7  2  0
  7  8  1  0
  8  9  1  0
  9 10  1  0
 10 11  2  0
 11 12  1  0
 12 13  2  0
 13 14  1  0
 14 15  2  0
 15 16  1  0
 16 17  1  0
 17 18  2  0
 18 19  1  0
 19 20  2  0
 20 21  1  0
 20 22  1  0
 22 23  2  0
 16 24  1  0
 24 25  2  0
  8 26  2  0
 26 27  1  0
 27 28  1  0
 26 29  1  0
 29 30  2  0
 30 31  1  0
 31 32  1  0
 31 33  1  0
 33 34  1  0
 34 35  1  0
 35 36  1  0
 35 37  1  0
 30  6  1  0
 25 10  1  0
 24 13  1  0
 23 17  1  0
M  CHG  1  35   1
M  END
$$$$
CHEMBL4228672_diffdock_10
     RDKit          3D

 37 40  0  0  0  0  0  0  0  0999 V2000
  -13.3988   17.0094  -21.4288 C   0  0  0  0  0  0  0  0  0  0  0  0
  -13.0416   16.7420  -22.6642 C   0  0  0  0  0  0  0  0  0  0  0  0
  -13.3487   15.4973  -23.3512 C   0  0  0  0  0  0  0  0  0  0  0  0
  -12.5305   14.5493  -23.2592 O   0  0  0  0  0  0  0  0  0  0  0  0
  -14.5132   15.2598  -24.1281 N   0  0  0  0  0  0  0  0  0  0  0  0
  -14.7218   14.0137  -24.7851 C   0  0  0  0  0  0  0  0  0  0  0  0
  -13.8160   13.5670  -25.7423 C   0  0  0  0  0  0  0  0  0  0  0  0
  -13.9664   12.3558  -26.3965 C   0  0  0  0  0  0  0  0  0  0  0  0
  -13.0031   11.9175  -27.3549 N   0  0  0  0  0  0  0  0  0  0  0  0
  -12.2304   12.9179  -28.0536 C   0  0  0  0  0  0  0  0  0  0  0  0
  -11.3768   12.5678  -29.0314 N   0  0  0  0  0  0  0  0  0  0  0  0
  -10.6259   13.4191  -29.7275 C   0  0  0  0  0  0  0  0  0  0  0  0
  -10.7414   14.7780  -29.4105 C   0  0  0  0  0  0  0  0  0  0  0  0
  -10.1840   15.9041  -29.8617 N   0  0  0  0  0  0  0  0  0  0  0  0
  -10.6985   16.9301  -29.1615 C   0  0  0  0  0  0  0  0  0  0  0  0
  -11.5799   16.4771  -28.2659 N   0  0  0  0  0  0  0  0  0  0  0  0
  -12.3667   17.2320  -27.3209 C   0  0  0  0  0  0  0  0  0  0  0  0
  -13.2332   16.5914  -26.4751 C   0  0  0  0  0  0  0  0  0  0  0  0
  -14.0130   17.2959  -25.5503 C   0  0  0  0  0  0  0  0  0  0  0  0
  -13.9217   18.6685  -25.4732 C   0  0  0  0  0  0  0  0  0  0  0  0
  -14.8997   19.5555  -24.3145 Cl  0  0  0  0  0  0  0  0  0  0  0  0
  -13.0529   19.3096  -26.3221 C   0  0  0  0  0  0  0  0  0  0  0  0
  -12.2783   18.6085  -27.2408 C   0  0  0  0  0  0  0  0  0  0  0  0
  -11.6143   15.1279  -28.4132 C   0  0  0  0  0  0  0  0  0  0  0  0
  -12.3514   14.2193  -27.7391 N   0  0  0  0  0  0  0  0  0  0  0  0
  -15.0351   11.5362  -26.1208 C   0  0  0  0  0  0  0  0  0  0  0  0
  -15.1644   10.3115  -26.7979 O   0  0  0  0  0  0  0  0  0  0  0  0
  -15.8860    9.2364  -26.1635 C   0  0  0  0  0  0  0  0  0  0  0  0
  -15.9353   11.9662  -25.1793 C   0  0  0  0  0  0  0  0  0  0  0  0
  -15.7901   13.1956  -24.5078 C   0  0  0  0  0  0  0  0  0  0  0  0
  -16.7245   13.5594  -23.5054 N   0  0  0  0  0  0  0  0  0  0  0  0
  -17.0306   12.7109  -22.3957 C   0  0  0  0  0  0  0  0  0  0  0  0
  -17.3875   14.8425  -23.6155 C   0  0  0  0  0  0  0  0  0  0  0  0
  -18.7315   14.7412  -24.2926 C   0  0  0  0  0  0  0  0  0  0  0  0
  -19.3566   16.0311  -24.2666 N   0  0  0  0  0  4  0  0  0  0  0  0
  -20.4330   16.1551  -25.2287 C   0  0  0  0  0  0  0  0  0  0  0  0
  -18.4395   17.1267  -24.4772 C   0  0  0  0  0  0  0  0  0  0  0  0
  1  2  2  0
  2  3  1  0
  3  4  2  0
  3  5  1  0
  5  6  1  0
  6  7  2  0
  7  8  1  0
  8  9  1  0
  9 10  1  0
 10 11  2  0
 11 12  1  0
 12 13  2  0
 13 14  1  0
 14 15  2  0
 15 16  1  0
 16 17  1  0
 17 18  2  0
 18 19  1  0
 19 20  2  0
 20 21  1  0
 20 22  1  0
 22 23  2  0
 16 24  1  0
 24 25  2  0
  8 26  2  0
 26 27  1  0
 27 28  1  0
 26 29  1  0
 29 30  2  0
 30 31  1  0
 31 32  1  0
 31 33  1  0
 33 34  1  0
 34 35  1  0
 35 36  1  0
 35 37  1  0
 30  6  1  0
 25 10  1  0
 24 13  1  0
 23 17  1  0
M  CHG  1  35   1
M  END
$$$$
CHEMBL3763627_diffdock_1
     RDKit          3D

 42 48  0  0  0  0  0  0  0  0999 V2000
  -15.6683   11.2478  -27.2708 C   0  0  0  0  0  0  0  0  0  0  0  0
  -15.2115   12.4782  -26.8065 O   0  0  0  0  0  0  0  0  0  0  0  0
  -14.1366   13.1947  -27.3058 C   0  0  0  0  0  0  0  0  0  0  0  0
  -13.1011   12.6186  -27.9909 C   0  0  0  0  0  0  0  0  0  0  0  0
  -12.0374   13.3875  -28.4758 C   0  0  0  0  0  0  0  0  0  0  0  0
  -11.0278   12.8248  -29.1488 N   0  0  0  0  0  0  0  0  0  0  0  0
   -9.9909   13.5273  -29.6348 C   0  0  0  0  0  0  0  0  0  0  0  0
   -9.9650   14.8435  -29.4386 N   0  0  0  0  0  0  0  0  0  0  0  0
  -10.9350   15.4638  -28.7788 C   0  0  0  0  0  0  0  0  0  0  0  0
  -10.8825   16.8627  -28.5884 N   0  0  0  0  0  0  0  0  0  0  0  0
   -9.7647   17.6157  -29.0208 C   0  0  0  0  0  0  0  0  0  0  0  0
   -8.7495   17.1552  -29.7981 C   0  0  0  0  0  0  0  0  0  0  0  0
   -7.6855   17.9804  -30.2016 C   0  0  0  0  0  0  0  0  0  0  0  0
   -7.6297   19.2825  -29.8256 C   0  0  0  0  0  0  0  0  0  0  0  0
   -6.5370   20.1907  -30.2286 C   0  0  0  0  0  0  0  0  0  0  0  0
   -5.4767   19.7011  -30.6853 O   0  0  0  0  0  0  0  0  0  0  0  0
   -6.6216   21.5874  -30.1258 N   0  0  0  0  0  0  0  0  0  0  0  0
   -6.0980   22.5085  -31.1250 C   0  0  2  0  0  0  0  0  0  0  0  0
   -6.0965   21.8539  -32.5041 C   0  0  0  0  0  0  0  0  0  0  0  0
   -5.4395   22.8045  -33.4754 C   0  0  1  0  0  0  0  0  0  0  0  0
   -6.1114   24.1512  -33.5045 C   0  0  0  0  0  0  0  0  0  0  0  0
   -6.0803   24.7426  -32.1077 C   0  0  2  0  0  0  0  0  0  0  0  0
   -4.6685   24.9650  -31.6606 C   0  0  0  0  0  0  0  0  0  0  0  0
   -3.9412   23.6419  -31.7507 C   0  0  2  0  0  0  0  0  0  0  0  0
   -3.9839   23.0310  -33.1209 C   0  0  0  0  0  0  0  0  0  0  0  0
   -4.6241   22.7034  -30.7812 C   0  0  0  0  0  0  0  0  0  0  0  0
   -6.8442   23.7933  -31.2200 C   0  0  0  0  0  0  0  0  0  0  0  0
   -8.6333   19.7761  -29.0438 C   0  0  0  0  0  0  0  0  0  0  0  0
   -9.6747   18.9727  -28.6482 C   0  0  0  0  0  0  0  0  0  0  0  0
  -12.0230   14.7474  -28.2657 C   0  0  0  0  0  0  0  0  0  0  0  0
  -13.0653   15.3165  -27.5783 C   0  0  0  0  0  0  0  0  0  0  0  0
  -14.1462   14.5855  -27.0765 C   0  0  0  0  0  0  0  0  0  0  0  0
  -15.1851   15.1259  -26.3904 O   0  0  0  0  0  0  0  0  0  0  0  0
  -15.3062   16.4092  -25.8964 C   0  0  0  0  0  0  0  0  0  0  0  0
  -16.4681   16.6614  -24.9986 C   0  0  0  0  0  0  0  0  0  0  0  0
  -16.3326   15.9225  -23.6705 C   0  0  0  0  0  0  0  0  0  0  0  0
  -17.4631   16.3193  -22.8592 N   0  0  0  0  0  4  0  0  0  0  0  0
  -18.7030   15.6871  -23.3335 C   0  0  0  0  0  0  0  0  0  0  0  0
  -19.7466   15.9981  -22.2558 C   0  0  0  0  0  0  0  0  0  0  0  0
  -19.8879   17.3554  -22.0502 O   0  0  0  0  0  0  0  0  0  0  0  0
  -18.7159   18.0039  -21.7286 C   0  0  0  0  0  0  0  0  0  0  0  0
  -17.7057   17.7367  -22.8447 C   0  0  0  0  0  0  0  0  0  0  0  0
  1  2  1  0
  2  3  1  0
  3  4  2  0
  4  5  1  0
  5  6  2  0
  6  7  1  0
  7  8  2  0
  8  9  1  0
  9 10  1  0
 10 11  1  0
 11 12  2  0
 12 13  1  0
 13 14  2  0
 14 15  1  0
 15 16  2  0
 15 17  1  0
 18 17  1  1
 18 19  1  0
 20 19  1  1
 20 21  1  0
 22 21  1  6
 22 23  1  0
 24 23  1  6
 24 25  1  0
 24 26  1  0
 22 27  1  0
 14 28  1  0
 28 29  2  0
  9 30  2  0
 30 31  1  0
 31 32  2  0
 32 33  1  0
 33 34  1  0
 34 35  1  0
 35 36  1  0
 37 36  1  0
 37 38  1  0
 38 39  1  0
 39 40  1  0
 40 41  1  0
 41 42  1  0
 32  3  1  0
 42 37  1  0
 30  5  1  0
 29 11  1  0
 26 18  1  0
 27 18  1  0
 25 20  1  0
M  CHG  1  37   1
M  END
$$$$
CHEMBL3763627_diffdock_2
     RDKit          3D

 42 48  0  0  0  0  0  0  0  0999 V2000
  -15.1529   11.0405  -26.1687 C   0  0  0  0  0  0  0  0  0  0  0  0
  -15.2575   12.3135  -26.7225 O   0  0  0  0  0  0  0  0  0  0  0  0
  -14.2231   13.0601  -27.2617 C   0  0  0  0  0  0  0  0  0  0  0  0
  -13.2424   12.5260  -28.0532 C   0  0  0  0  0  0  0  0  0  0  0  0
  -12.2181   13.3241  -28.5743 C   0  0  0  0  0  0  0  0  0  0  0  0
  -11.2623   12.8026  -29.3511 N   0  0  0  0  0  0  0  0  0  0  0  0
  -10.2649   13.5344  -29.8749 C   0  0  0  0  0  0  0  0  0  0  0  0
  -10.2238   14.8380  -29.6099 N   0  0  0  0  0  0  0  0  0  0  0  0
  -11.1411   15.4179  -28.8461 C   0  0  0  0  0  0  0  0  0  0  0  0
  -11.0739   16.8047  -28.5844 N   0  0  0  0  0  0  0  0  0  0  0  0
  -10.1162   17.6227  -29.2302 C   0  0  0  0  0  0  0  0  0  0  0  0
  -10.2482   18.9514  -29.4835 C   0  0  0  0  0  0  0  0  0  0  0  0
   -9.2344   19.6953  -30.1118 C   0  0  0  0  0  0  0  0  0  0  0  0
   -8.0729   19.1089  -30.4949 C   0  0  0  0  0  0  0  0  0  0  0  0
   -6.9763   19.8484  -31.1522 C   0  0  0  0  0  0  0  0  0  0  0  0
   -6.7632   21.0395  -30.8230 O   0  0  0  0  0  0  0  0  0  0  0  0
   -6.1514   19.2843  -32.1371 N   0  0  0  0  0  0  0  0  0  0  0  0
   -4.8735   19.8494  -32.5475 C   0  0  2  0  0  0  0  0  0  0  0  0
   -4.1423   20.4417  -31.3454 C   0  0  0  0  0  0  0  0  0  0  0  0
   -2.8854   21.1132  -31.8433 C   0  0  1  0  0  0  0  0  0  0  0  0
   -2.0011   20.1741  -32.6192 C   0  0  0  0  0  0  0  0  0  0  0  0
   -2.7871   19.6217  -33.7934 C   0  0  2  0  0  0  0  0  0  0  0  0
   -3.1847   20.7233  -34.7268 C   0  0  0  0  0  0  0  0  0  0  0  0
   -3.9657   21.7447  -33.9301 C   0  0  2  0  0  0  0  0  0  0  0  0
   -3.2111   22.2829  -32.7497 C   0  0  0  0  0  0  0  0  0  0  0  0
   -5.2111   21.0469  -33.4308 C   0  0  0  0  0  0  0  0  0  0  0  0
   -3.9633   18.8777  -33.2139 C   0  0  0  0  0  0  0  0  0  0  0  0
   -7.9089   17.7755  -30.2560 C   0  0  0  0  0  0  0  0  0  0  0  0
   -8.8972   17.0458  -29.6417 C   0  0  0  0  0  0  0  0  0  0  0  0
  -12.1874   14.6706  -28.2922 C   0  0  0  0  0  0  0  0  0  0  0  0
  -13.1747   15.1977  -27.4983 C   0  0  0  0  0  0  0  0  0  0  0  0
  -14.2149   14.4364  -26.9570 C   0  0  0  0  0  0  0  0  0  0  0  0
  -15.1990   14.9348  -26.1662 O   0  0  0  0  0  0  0  0  0  0  0  0
  -15.1997   16.1112  -25.4439 C   0  0  0  0  0  0  0  0  0  0  0  0
  -16.1949   16.2040  -24.3391 C   0  0  0  0  0  0  0  0  0  0  0  0
  -16.0465   17.4990  -23.5461 C   0  0  0  0  0  0  0  0  0  0  0  0
  -17.0486   17.4624  -22.5029 N   0  0  0  0  0  4  0  0  0  0  0  0
  -18.1802   18.3444  -22.8247 C   0  0  0  0  0  0  0  0  0  0  0  0
  -19.2479   18.0223  -21.7742 C   0  0  0  0  0  0  0  0  0  0  0  0
  -18.7800   18.2067  -20.4890 O   0  0  0  0  0  0  0  0  0  0  0  0
  -17.6411   17.4904  -20.1934 C   0  0  0  0  0  0  0  0  0  0  0  0
  -16.5656   17.8706  -21.2112 C   0  0  0  0  0  0  0  0  0  0  0  0
  1  2  1  0
  2  3  1  0
  3  4  2  0
  4  5  1  0
  5  6  2  0
  6  7  1  0
  7  8  2  0
  8  9  1  0
  9 10  1  0
 10 11  1  0
 11 12  2  0
 12 13  1  0
 13 14  2  0
 14 15  1  0
 15 16  2  0
 15 17  1  0
 18 17  1  1
 18 19  1  0
 20 19  1  6
 20 21  1  0
 22 21  1  1
 22 23  1  0
 24 23  1  1
 24 25  1  0
 24 26  1  0
 22 27  1  0
 14 28  1  0
 28 29  2  0
  9 30  2  0
 30 31  1  0
 31 32  2  0
 32 33  1  0
 33 34  1  0
 34 35  1  0
 35 36  1  0
 37 36  1  0
 37 38  1  0
 38 39  1  0
 39 40  1  0
 40 41  1  0
 41 42  1  0
 32  3  1  0
 42 37  1  0
 30  5  1  0
 29 11  1  0
 26 18  1  0
 27 18  1  0
 25 20  1  0
M  CHG  1  37   1
M  END
$$$$
CHEMBL3763627_diffdock_3
     RDKit          3D

 42 48  0  0  0  0  0  0  0  0999 V2000
  -15.4970   11.0949  -26.7019 C   0  0  0  0  0  0  0  0  0  0  0  0
  -15.0790   12.3717  -26.3370 O   0  0  0  0  0  0  0  0  0  0  0  0
  -14.0605   13.1006  -26.9280 C   0  0  0  0  0  0  0  0  0  0  0  0
  -13.0836   12.5370  -27.7036 C   0  0  0  0  0  0  0  0  0  0  0  0
  -12.0757   13.3183  -28.2792 C   0  0  0  0  0  0  0  0  0  0  0  0
  -11.1237   12.7676  -29.0404 N   0  0  0  0  0  0  0  0  0  0  0  0
  -10.1418   13.4822  -29.6149 C   0  0  0  0  0  0  0  0  0  0  0  0
  -10.1129   14.7984  -29.4187 N   0  0  0  0  0  0  0  0  0  0  0  0
  -11.0273   15.4070  -28.6740 C   0  0  0  0  0  0  0  0  0  0  0  0
  -10.9733   16.8062  -28.4859 N   0  0  0  0  0  0  0  0  0  0  0  0
   -9.9420   17.5808  -29.0687 C   0  0  0  0  0  0  0  0  0  0  0  0
  -10.0540   18.8707  -29.4813 C   0  0  0  0  0  0  0  0  0  0  0  0
   -8.9687   19.5752  -30.0307 C   0  0  0  0  0  0  0  0  0  0  0  0
   -7.7544   18.9876  -30.1728 C   0  0  0  0  0  0  0  0  0  0  0  0
   -6.5828   19.6872  -30.7380 C   0  0  0  0  0  0  0  0  0  0  0  0
   -5.5163   19.0493  -30.9058 O   0  0  0  0  0  0  0  0  0  0  0  0
   -6.5984   21.0426  -31.1004 N   0  0  0  0  0  0  0  0  0  0  0  0
   -5.5110   21.7074  -31.8050 C   0  0  2  0  0  0  0  0  0  0  0  0
   -4.9473   22.8473  -30.9605 C   0  0  0  0  0  0  0  0  0  0  0  0
   -3.9082   23.5719  -31.7815 C   0  0  1  0  0  0  0  0  0  0  0  0
   -2.8185   22.6545  -32.2680 C   0  0  0  0  0  0  0  0  0  0  0  0
   -3.4452   21.5476  -33.0950 C   0  0  2  0  0  0  0  0  0  0  0  0
   -4.1188   22.1122  -34.3075 C   0  0  0  0  0  0  0  0  0  0  0  0
   -5.1296   23.1357  -33.8403 C   0  0  2  0  0  0  0  0  0  0  0  0
   -4.5295   24.2246  -32.9996 C   0  0  0  0  0  0  0  0  0  0  0  0
   -6.1508   22.3907  -33.0100 C   0  0  0  0  0  0  0  0  0  0  0  0
   -4.3871   20.8061  -32.1807 C   0  0  0  0  0  0  0  0  0  0  0  0
   -7.6085   17.6924  -29.7691 C   0  0  0  0  0  0  0  0  0  0  0  0
   -8.6667   17.0014  -29.2314 C   0  0  0  0  0  0  0  0  0  0  0  0
  -12.0575   14.6779  -28.0681 C   0  0  0  0  0  0  0  0  0  0  0  0
  -13.0409   15.2346  -27.2896 C   0  0  0  0  0  0  0  0  0  0  0  0
  -14.0649   14.4910  -26.6956 C   0  0  0  0  0  0  0  0  0  0  0  0
  -15.0447   15.0189  -25.9188 O   0  0  0  0  0  0  0  0  0  0  0  0
  -14.9164   15.9049  -24.8680 C   0  0  0  0  0  0  0  0  0  0  0  0
  -16.1829   16.4793  -24.3336 C   0  0  0  0  0  0  0  0  0  0  0  0
  -17.0489   15.4196  -23.6591 C   0  0  0  0  0  0  0  0  0  0  0  0
  -17.9933   16.1282  -22.8225 N   0  0  0  0  0  4  0  0  0  0  0  0
  -19.0018   15.2122  -22.2696 C   0  0  0  0  0  0  0  0  0  0  0  0
  -19.7682   16.0413  -21.2340 C   0  0  0  0  0  0  0  0  0  0  0  0
  -20.3278   17.1735  -21.7905 O   0  0  0  0  0  0  0  0  0  0  0  0
  -19.4256   17.9939  -22.4314 C   0  0  0  0  0  0  0  0  0  0  0  0
  -18.7150   17.1686  -23.5043 C   0  0  0  0  0  0  0  0  0  0  0  0
  1  2  1  0
  2  3  1  0
  3  4  2  0
  4  5  1  0
  5  6  2  0
  6  7  1  0
  7  8  2  0
  8  9  1  0
  9 10  1  0
 10 11  1  0
 11 12  2  0
 12 13  1  0
 13 14  2  0
 14 15  1  0
 15 16  2  0
 15 17  1  0
 18 17  1  1
 18 19  1  0
 20 19  1  6
 20 21  1  0
 22 21  1  1
 22 23  1  0
 24 23  1  1
 24 25  1  0
 24 26  1  0
 22 27  1  0
 14 28  1  0
 28 29  2  0
  9 30  2  0
 30 31  1  0
 31 32  2  0
 32 33  1  0
 33 34  1  0
 34 35  1  0
 35 36  1  0
 37 36  1  0
 37 38  1  0
 38 39  1  0
 39 40  1  0
 40 41  1  0
 41 42  1  0
 32  3  1  0
 42 37  1  0
 30  5  1  0
 29 11  1  0
 26 18  1  0
 27 18  1  0
 25 20  1  0
M  CHG  1  37   1
M  END
$$$$
CHEMBL3763627_diffdock_4
     RDKit          3D

 42 48  0  0  0  0  0  0  0  0999 V2000
  -16.0813   11.7288  -26.6570 C   0  0  0  0  0  0  0  0  0  0  0  0
  -15.6317   13.0157  -26.3745 O   0  0  0  0  0  0  0  0  0  0  0  0
  -14.5602   13.6588  -26.9715 C   0  0  0  0  0  0  0  0  0  0  0  0
  -13.5778   13.0020  -27.6621 C   0  0  0  0  0  0  0  0  0  0  0  0
  -12.5152   13.6988  -28.2479 C   0  0  0  0  0  0  0  0  0  0  0  0
  -11.5577   13.0569  -28.9262 N   0  0  0  0  0  0  0  0  0  0  0  0
  -10.5240   13.6884  -29.5072 C   0  0  0  0  0  0  0  0  0  0  0  0
  -10.4472   15.0132  -29.4042 N   0  0  0  0  0  0  0  0  0  0  0  0
  -11.3640   15.7101  -28.7449 C   0  0  0  0  0  0  0  0  0  0  0  0
  -11.2582   17.1161  -28.6547 N   0  0  0  0  0  0  0  0  0  0  0  0
  -10.1570   17.8020  -29.2204 C   0  0  0  0  0  0  0  0  0  0  0  0
   -9.8630   19.1166  -29.0414 C   0  0  0  0  0  0  0  0  0  0  0  0
   -8.7321   19.7143  -29.6243 C   0  0  0  0  0  0  0  0  0  0  0  0
   -7.8817   18.9942  -30.3976 C   0  0  0  0  0  0  0  0  0  0  0  0
   -6.6778   19.5746  -31.0263 C   0  0  0  0  0  0  0  0  0  0  0  0
   -5.8806   18.8164  -31.6281 O   0  0  0  0  0  0  0  0  0  0  0  0
   -6.3739   20.9437  -30.9851 N   0  0  0  0  0  0  0  0  0  0  0  0
   -5.5023   21.6113  -31.9420 C   0  0  2  0  0  0  0  0  0  0  0  0
   -6.1843   22.8550  -32.5062 C   0  0  0  0  0  0  0  0  0  0  0  0
   -5.2898   23.4394  -33.5725 C   0  0  1  0  0  0  0  0  0  0  0  0
   -3.9106   23.7523  -33.0570 C   0  0  0  0  0  0  0  0  0  0  0  0
   -3.2930   22.4787  -32.5107 C   0  0  2  0  0  0  0  0  0  0  0  0
   -3.1357   21.4607  -33.5976 C   0  0  0  0  0  0  0  0  0  0  0  0
   -4.4967   21.2309  -34.2161 C   0  0  2  0  0  0  0  0  0  0  0  0
   -5.1326   22.4856  -34.7393 C   0  0  0  0  0  0  0  0  0  0  0  0
   -5.3780   20.6594  -33.1280 C   0  0  0  0  0  0  0  0  0  0  0  0
   -4.1823   22.0162  -31.3848 C   0  0  0  0  0  0  0  0  0  0  0  0
   -8.1488   17.6711  -30.5982 C   0  0  0  0  0  0  0  0  0  0  0  0
   -9.2526   17.0839  -30.0297 C   0  0  0  0  0  0  0  0  0  0  0  0
  -12.4478   15.0684  -28.1335 C   0  0  0  0  0  0  0  0  0  0  0  0
  -13.4371   15.7188  -27.4398 C   0  0  0  0  0  0  0  0  0  0  0  0
  -14.5148   15.0615  -26.8390 C   0  0  0  0  0  0  0  0  0  0  0  0
  -15.5017   15.6830  -26.1448 O   0  0  0  0  0  0  0  0  0  0  0  0
  -15.5620   15.9366  -24.7892 C   0  0  0  0  0  0  0  0  0  0  0  0
  -16.2668   17.1852  -24.3844 C   0  0  0  0  0  0  0  0  0  0  0  0
  -16.3226   17.3417  -22.8677 C   0  0  0  0  0  0  0  0  0  0  0  0
  -17.5910   17.9678  -22.5628 N   0  0  0  0  0  4  0  0  0  0  0  0
  -17.9542   18.9555  -23.5896 C   0  0  0  0  0  0  0  0  0  0  0  0
  -19.4002   19.3489  -23.2705 C   0  0  0  0  0  0  0  0  0  0  0  0
  -19.5298   19.8436  -21.9888 O   0  0  0  0  0  0  0  0  0  0  0  0
  -19.0779   18.9917  -21.0051 C   0  0  0  0  0  0  0  0  0  0  0  0
  -17.6154   18.6596  -21.3022 C   0  0  0  0  0  0  0  0  0  0  0  0
  1  2  1  0
  2  3  1  0
  3  4  2  0
  4  5  1  0
  5  6  2  0
  6  7  1  0
  7  8  2  0
  8  9  1  0
  9 10  1  0
 10 11  1  0
 11 12  2  0
 12 13  1  0
 13 14  2  0
 14 15  1  0
 15 16  2  0
 15 17  1  0
 18 17  1  1
 18 19  1  0
 20 19  1  1
 20 21  1  0
 22 21  1  6
 22 23  1  0
 24 23  1  1
 24 25  1  0
 24 26  1  0
 22 27  1  0
 14 28  1  0
 28 29  2  0
  9 30  2  0
 30 31  1  0
 31 32  2  0
 32 33  1  0
 33 34  1  0
 34 35  1  0
 35 36  1  0
 37 36  1  0
 37 38  1  0
 38 39  1  0
 39 40  1  0
 40 41  1  0
 41 42  1  0
 32  3  1  0
 42 37  1  0
 30  5  1  0
 29 11  1  0
 26 18  1  0
 27 18  1  0
 25 20  1  0
M  CHG  1  37   1
M  END
$$$$
CHEMBL3763627_diffdock_5
     RDKit          3D

 42 48  0  0  0  0  0  0  0  0999 V2000
  -15.8087   11.1819  -28.0704 C   0  0  0  0  0  0  0  0  0  0  0  0
  -15.0858   12.0465  -27.2529 O   0  0  0  0  0  0  0  0  0  0  0  0
  -14.0523   12.8781  -27.6508 C   0  0  0  0  0  0  0  0  0  0  0  0
  -12.9720   12.4445  -28.3708 C   0  0  0  0  0  0  0  0  0  0  0  0
  -11.9533   13.3259  -28.7490 C   0  0  0  0  0  0  0  0  0  0  0  0
  -10.8999   12.9027  -29.4562 N   0  0  0  0  0  0  0  0  0  0  0  0
   -9.9036   13.7167  -29.8431 C   0  0  0  0  0  0  0  0  0  0  0  0
   -9.9655   15.0034  -29.5083 N   0  0  0  0  0  0  0  0  0  0  0  0
  -10.9830   15.4876  -28.8073 C   0  0  0  0  0  0  0  0  0  0  0  0
  -11.0236   16.8588  -28.4690 N   0  0  0  0  0  0  0  0  0  0  0  0
   -9.9137   17.7028  -28.7126 C   0  0  0  0  0  0  0  0  0  0  0  0
   -9.8223   19.0140  -28.3675 C   0  0  0  0  0  0  0  0  0  0  0  0
   -8.6697   19.7753  -28.6280 C   0  0  0  0  0  0  0  0  0  0  0  0
   -7.5927   19.2248  -29.2417 C   0  0  0  0  0  0  0  0  0  0  0  0
   -6.3574   19.9808  -29.5313 C   0  0  0  0  0  0  0  0  0  0  0  0
   -5.2622   19.3704  -29.5544 O   0  0  0  0  0  0  0  0  0  0  0  0
   -6.3426   21.3609  -29.7836 N   0  0  0  0  0  0  0  0  0  0  0  0
   -5.4589   22.0007  -30.7483 C   0  0  2  0  0  0  0  0  0  0  0  0
   -5.6381   21.3772  -32.1302 C   0  0  0  0  0  0  0  0  0  0  0  0
   -4.6214   21.9939  -33.0601 C   0  0  1  0  0  0  0  0  0  0  0  0
   -4.7280   23.4944  -33.1138 C   0  0  0  0  0  0  0  0  0  0  0  0
   -4.5437   24.0474  -31.7131 C   0  0  2  0  0  0  0  0  0  0  0  0
   -3.1775   23.7218  -31.1932 C   0  0  0  0  0  0  0  0  0  0  0  0
   -3.0049   22.2205  -31.2556 C   0  0  2  0  0  0  0  0  0  0  0  0
   -3.2086   21.6543  -32.6305 C   0  0  0  0  0  0  0  0  0  0  0  0
   -4.0408   21.6247  -30.3287 C   0  0  0  0  0  0  0  0  0  0  0  0
   -5.6545   23.4715  -30.8721 C   0  0  0  0  0  0  0  0  0  0  0  0
   -7.6524   17.9100  -29.6022 C   0  0  0  0  0  0  0  0  0  0  0  0
   -8.7768   17.1631  -29.3487 C   0  0  0  0  0  0  0  0  0  0  0  0
  -12.0297   14.6538  -28.3960 C   0  0  0  0  0  0  0  0  0  0  0  0
  -13.1164   15.0798  -27.6746 C   0  0  0  0  0  0  0  0  0  0  0  0
  -14.1549   14.2331  -27.2759 C   0  0  0  0  0  0  0  0  0  0  0  0
  -15.2364   14.6309  -26.5587 O   0  0  0  0  0  0  0  0  0  0  0  0
  -15.2648   15.1915  -25.2975 C   0  0  0  0  0  0  0  0  0  0  0  0
  -16.6090   15.5618  -24.7726 C   0  0  0  0  0  0  0  0  0  0  0  0
  -16.5267   16.1747  -23.3777 C   0  0  0  0  0  0  0  0  0  0  0  0
  -17.8877   16.4264  -22.9555 N   0  0  0  0  0  4  0  0  0  0  0  0
  -18.8024   16.4535  -24.1063 C   0  0  0  0  0  0  0  0  0  0  0  0
  -20.2081   16.4838  -23.4975 C   0  0  0  0  0  0  0  0  0  0  0  0
  -20.3828   17.5629  -22.6551 O   0  0  0  0  0  0  0  0  0  0  0  0
  -19.4595   17.6400  -21.6357 C   0  0  0  0  0  0  0  0  0  0  0  0
  -18.0652   17.6736  -22.2618 C   0  0  0  0  0  0  0  0  0  0  0  0
  1  2  1  0
  2  3  1  0
  3  4  2  0
  4  5  1  0
  5  6  2  0
  6  7  1  0
  7  8  2  0
  8  9  1  0
  9 10  1  0
 10 11  1  0
 11 12  2  0
 12 13  1  0
 13 14  2  0
 14 15  1  0
 15 16  2  0
 15 17  1  0
 18 17  1  1
 18 19  1  0
 20 19  1  1
 20 21  1  0
 22 21  1  6
 22 23  1  0
 24 23  1  6
 24 25  1  0
 24 26  1  0
 22 27  1  0
 14 28  1  0
 28 29  2  0
  9 30  2  0
 30 31  1  0
 31 32  2  0
 32 33  1  0
 33 34  1  0
 34 35  1  0
 35 36  1  0
 37 36  1  0
 37 38  1  0
 38 39  1  0
 39 40  1  0
 40 41  1  0
 41 42  1  0
 32  3  1  0
 42 37  1  0
 30  5  1  0
 29 11  1  0
 26 18  1  0
 27 18  1  0
 25 20  1  0
M  CHG  1  37   1
M  END
$$$$
CHEMBL3763627_diffdock_6
     RDKit          3D

 42 48  0  0  0  0  0  0  0  0999 V2000
  -15.5880   10.8323  -27.1232 C   0  0  0  0  0  0  0  0  0  0  0  0
  -15.2726   12.1558  -26.8279 O   0  0  0  0  0  0  0  0  0  0  0  0
  -14.2054   12.8769  -27.3368 C   0  0  0  0  0  0  0  0  0  0  0  0
  -13.2088   12.3166  -28.0893 C   0  0  0  0  0  0  0  0  0  0  0  0
  -12.1512   13.0897  -28.5809 C   0  0  0  0  0  0  0  0  0  0  0  0
  -11.1799   12.5426  -29.3198 N   0  0  0  0  0  0  0  0  0  0  0  0
  -10.1504   13.2500  -29.8145 C   0  0  0  0  0  0  0  0  0  0  0  0
  -10.0923   14.5548  -29.5587 N   0  0  0  0  0  0  0  0  0  0  0  0
  -11.0237   15.1594  -28.8319 C   0  0  0  0  0  0  0  0  0  0  0  0
  -10.9377   16.5468  -28.5792 N   0  0  0  0  0  0  0  0  0  0  0  0
  -10.0408   17.3658  -29.3059 C   0  0  0  0  0  0  0  0  0  0  0  0
   -9.4277   17.0323  -30.4719 C   0  0  0  0  0  0  0  0  0  0  0  0
   -8.5658   17.9182  -31.1415 C   0  0  0  0  0  0  0  0  0  0  0  0
   -8.3092   19.1535  -30.6436 C   0  0  0  0  0  0  0  0  0  0  0  0
   -7.4169   20.1218  -31.3126 C   0  0  0  0  0  0  0  0  0  0  0  0
   -7.8744   20.8290  -32.2416 O   0  0  0  0  0  0  0  0  0  0  0  0
   -6.0694   20.2942  -30.9619 N   0  0  0  0  0  0  0  0  0  0  0  0
   -5.1538   21.1809  -31.6664 C   0  0  2  0  0  0  0  0  0  0  0  0
   -5.7878   22.5560  -31.8607 C   0  0  0  0  0  0  0  0  0  0  0  0
   -4.8481   23.3940  -32.6935 C   0  0  1  0  0  0  0  0  0  0  0  0
   -3.4771   23.4999  -32.0811 C   0  0  0  0  0  0  0  0  0  0  0  0
   -2.9078   22.1036  -31.9140 C   0  0  2  0  0  0  0  0  0  0  0  0
   -2.7444   21.4380  -33.2455 C   0  0  0  0  0  0  0  0  0  0  0  0
   -4.0921   21.4407  -33.9321 C   0  0  2  0  0  0  0  0  0  0  0  0
   -4.6809   22.8129  -34.0829 C   0  0  0  0  0  0  0  0  0  0  0  0
   -5.0188   20.6083  -33.0743 C   0  0  0  0  0  0  0  0  0  0  0  0
   -3.8410   21.3648  -30.9887 C   0  0  0  0  0  0  0  0  0  0  0  0
   -8.9084   19.5194  -29.4735 C   0  0  0  0  0  0  0  0  0  0  0  0
   -9.7515   18.6564  -28.8169 C   0  0  0  0  0  0  0  0  0  0  0  0
  -12.1033   14.4378  -28.3088 C   0  0  0  0  0  0  0  0  0  0  0  0
  -13.1067   14.9912  -27.5539 C   0  0  0  0  0  0  0  0  0  0  0  0
  -14.1801   14.2554  -27.0430 C   0  0  0  0  0  0  0  0  0  0  0  0
  -15.1807   14.7801  -26.2909 O   0  0  0  0  0  0  0  0  0  0  0  0
  -15.3240   14.7469  -24.9183 C   0  0  0  0  0  0  0  0  0  0  0  0
  -15.8756   15.9772  -24.2847 C   0  0  0  0  0  0  0  0  0  0  0  0
  -17.3498   15.8201  -23.9239 C   0  0  0  0  0  0  0  0  0  0  0  0
  -17.9109   17.1534  -23.8863 N   0  0  0  0  0  4  0  0  0  0  0  0
  -17.2278   17.9872  -22.8863 C   0  0  0  0  0  0  0  0  0  0  0  0
  -17.7514   19.4069  -23.1262 C   0  0  0  0  0  0  0  0  0  0  0  0
  -19.1261   19.4744  -23.0239 O   0  0  0  0  0  0  0  0  0  0  0  0
  -19.7986   18.6098  -23.8592 C   0  0  0  0  0  0  0  0  0  0  0  0
  -19.3117   17.1912  -23.5631 C   0  0  0  0  0  0  0  0  0  0  0  0
  1  2  1  0
  2  3  1  0
  3  4  2  0
  4  5  1  0
  5  6  2  0
  6  7  1  0
  7  8  2  0
  8  9  1  0
  9 10  1  0
 10 11  1  0
 11 12  2  0
 12 13  1  0
 13 14  2  0
 14 15  1  0
 15 16  2  0
 15 17  1  0
 18 17  1  1
 18 19  1  0
 20 19  1  1
 20 21  1  0
 22 21  1  6
 22 23  1  0
 24 23  1  1
 24 25  1  0
 24 26  1  0
 22 27  1  0
 14 28  1  0
 28 29  2  0
  9 30  2  0
 30 31  1  0
 31 32  2  0
 32 33  1  0
 33 34  1  0
 34 35  1  0
 35 36  1  0
 37 36  1  0
 37 38  1  0
 38 39  1  0
 39 40  1  0
 40 41  1  0
 41 42  1  0
 32  3  1  0
 42 37  1  0
 30  5  1  0
 29 11  1  0
 26 18  1  0
 27 18  1  0
 25 20  1  0
M  CHG  1  37   1
M  END
$$$$
CHEMBL3763627_diffdock_7
     RDKit          3D

 42 48  0  0  0  0  0  0  0  0999 V2000
   -8.5703   16.3239  -30.5006 C   0  0  0  0  0  0  0  0  0  0  0  0
   -9.5038   16.7226  -29.5478 O   0  0  0  0  0  0  0  0  0  0  0  0
  -10.4882   15.9289  -28.9829 C   0  0  0  0  0  0  0  0  0  0  0  0
  -10.6313   14.5960  -29.2596 C   0  0  0  0  0  0  0  0  0  0  0  0
  -11.6434   13.8373  -28.6615 C   0  0  0  0  0  0  0  0  0  0  0  0
  -11.7803   12.5340  -28.9290 N   0  0  0  0  0  0  0  0  0  0  0  0
  -12.7347   11.7693  -28.3729 C   0  0  0  0  0  0  0  0  0  0  0  0
  -13.5840   12.3323  -27.5166 N   0  0  0  0  0  0  0  0  0  0  0  0
  -13.5031   13.6205  -27.2082 C   0  0  0  0  0  0  0  0  0  0  0  0
  -14.4166   14.1903  -26.2933 N   0  0  0  0  0  0  0  0  0  0  0  0
  -15.3291   13.3813  -25.5749 C   0  0  0  0  0  0  0  0  0  0  0  0
  -15.0004   12.4500  -24.6414 C   0  0  0  0  0  0  0  0  0  0  0  0
  -15.9751   11.7038  -23.9566 C   0  0  0  0  0  0  0  0  0  0  0  0
  -17.2962   11.8858  -24.2045 C   0  0  0  0  0  0  0  0  0  0  0  0
  -18.3575   11.1315  -23.5073 C   0  0  0  0  0  0  0  0  0  0  0  0
  -19.5537   11.3275  -23.8283 O   0  0  0  0  0  0  0  0  0  0  0  0
  -18.0968   10.1979  -22.4930 N   0  0  0  0  0  0  0  0  0  0  0  0
  -19.1072    9.6955  -21.5723 C   0  0  2  0  0  0  0  0  0  0  0  0
  -20.4275   10.4343  -21.7756 C   0  0  0  0  0  0  0  0  0  0  0  0
  -21.3998    9.9584  -20.7235 C   0  0  1  0  0  0  0  0  0  0  0  0
  -21.5926    8.4658  -20.7526 C   0  0  0  0  0  0  0  0  0  0  0  0
  -20.2468    7.7957  -20.5480 C   0  0  2  0  0  0  0  0  0  0  0  0
  -19.6852    8.1405  -19.2032 C   0  0  0  0  0  0  0  0  0  0  0  0
  -19.6074    9.6480  -19.1075 C   0  0  2  0  0  0  0  0  0  0  0  0
  -20.9263   10.3279  -19.3324 C   0  0  0  0  0  0  0  0  0  0  0  0
  -18.6403   10.1023  -20.1778 C   0  0  0  0  0  0  0  0  0  0  0  0
  -19.3678    8.2345  -21.6915 C   0  0  0  0  0  0  0  0  0  0  0  0
  -17.6601   12.8130  -25.1372 C   0  0  0  0  0  0  0  0  0  0  0  0
  -16.7103   13.5442  -25.8078 C   0  0  0  0  0  0  0  0  0  0  0  0
  -12.5149   14.4320  -27.7781 C   0  0  0  0  0  0  0  0  0  0  0  0
  -12.3638   15.7685  -27.5062 C   0  0  0  0  0  0  0  0  0  0  0  0
  -11.3677   16.5628  -28.0820 C   0  0  0  0  0  0  0  0  0  0  0  0
  -11.2021   17.8864  -27.8317 O   0  0  0  0  0  0  0  0  0  0  0  0
  -12.1599   18.8134  -27.4725 C   0  0  0  0  0  0  0  0  0  0  0  0
  -11.6751   20.2022  -27.2362 C   0  0  0  0  0  0  0  0  0  0  0  0
  -10.9379   20.3296  -25.9064 C   0  0  0  0  0  0  0  0  0  0  0  0
  -11.8070   21.0749  -25.0214 N   0  0  0  0  0  4  0  0  0  0  0  0
  -12.3167   22.2877  -25.6778 C   0  0  0  0  0  0  0  0  0  0  0  0
  -13.3902   22.8327  -24.7302 C   0  0  0  0  0  0  0  0  0  0  0  0
  -12.8874   23.0829  -23.4696 O   0  0  0  0  0  0  0  0  0  0  0  0
  -12.2854   21.9960  -22.8747 C   0  0  0  0  0  0  0  0  0  0  0  0
  -11.1748   21.5035  -23.8029 C   0  0  0  0  0  0  0  0  0  0  0  0
  1  2  1  0
  2  3  1  0
  3  4  2  0
  4  5  1  0
  5  6  2  0
  6  7  1  0
  7  8  2  0
  8  9  1  0
  9 10  1  0
 10 11  1  0
 11 12  2  0
 12 13  1  0
 13 14  2  0
 14 15  1  0
 15 16  2  0
 15 17  1  0
 18 17  1  6
 18 19  1  0
 20 19  1  6
 20 21  1  0
 22 21  1  6
 22 23  1  0
 24 23  1  6
 24 25  1  0
 24 26  1  0
 22 27  1  0
 14 28  1  0
 28 29  2  0
  9 30  2  0
 30 31  1  0
 31 32  2  0
 32 33  1  0
 33 34  1  0
 34 35  1  0
 35 36  1  0
 37 36  1  0
 37 38  1  0
 38 39  1  0
 39 40  1  0
 40 41  1  0
 41 42  1  0
 32  3  1  0
 42 37  1  0
 30  5  1  0
 29 11  1  0
 26 18  1  0
 27 18  1  0
 25 20  1  0
M  CHG  1  37   1
M  END
$$$$
CHEMBL3763627_diffdock_8
     RDKit          3D

 42 48  0  0  0  0  0  0  0  0999 V2000
  -16.0028   11.3037  -26.5103 C   0  0  0  0  0  0  0  0  0  0  0  0
  -15.9430   12.6834  -26.6860 O   0  0  0  0  0  0  0  0  0  0  0  0
  -14.9084   13.3902  -27.2760 C   0  0  0  0  0  0  0  0  0  0  0  0
  -13.9689   12.8128  -28.0870 C   0  0  0  0  0  0  0  0  0  0  0  0
  -12.9425   13.5718  -28.6598 C   0  0  0  0  0  0  0  0  0  0  0  0
  -12.0272   13.0080  -29.4556 N   0  0  0  0  0  0  0  0  0  0  0  0
  -11.0293   13.7014  -30.0287 C   0  0  0  0  0  0  0  0  0  0  0  0
  -10.9457   15.0090  -29.7952 N   0  0  0  0  0  0  0  0  0  0  0  0
  -11.8216   15.6298  -29.0150 C   0  0  0  0  0  0  0  0  0  0  0  0
  -11.7099   17.0197  -28.7876 N   0  0  0  0  0  0  0  0  0  0  0  0
  -10.6070   17.7535  -29.2860 C   0  0  0  0  0  0  0  0  0  0  0  0
   -9.9786   17.5360  -30.4712 C   0  0  0  0  0  0  0  0  0  0  0  0
   -8.9011   18.3298  -30.9010 C   0  0  0  0  0  0  0  0  0  0  0  0
   -8.4409   19.3542  -30.1403 C   0  0  0  0  0  0  0  0  0  0  0  0
   -7.3169   20.2200  -30.5507 C   0  0  0  0  0  0  0  0  0  0  0  0
   -6.1803   20.0127  -30.0631 O   0  0  0  0  0  0  0  0  0  0  0  0
   -7.4538   21.2745  -31.4660 N   0  0  0  0  0  0  0  0  0  0  0  0
   -6.3946   21.7131  -32.3641 C   0  0  2  0  0  0  0  0  0  0  0  0
   -6.9528   21.9675  -33.7620 C   0  0  0  0  0  0  0  0  0  0  0  0
   -5.7991   22.3047  -34.6752 C   0  0  1  0  0  0  0  0  0  0  0  0
   -4.9979   23.4785  -34.1790 C   0  0  0  0  0  0  0  0  0  0  0  0
   -4.4768   23.1616  -32.7898 C   0  0  2  0  0  0  0  0  0  0  0  0
   -3.5529   21.9837  -32.8292 C   0  0  0  0  0  0  0  0  0  0  0  0
   -4.3051   20.8268  -33.4486 C   0  0  2  0  0  0  0  0  0  0  0  0
   -4.8489   21.1326  -34.8137 C   0  0  0  0  0  0  0  0  0  0  0  0
   -5.4620   20.5162  -32.5255 C   0  0  0  0  0  0  0  0  0  0  0  0
   -5.6850   22.9425  -31.9151 C   0  0  0  0  0  0  0  0  0  0  0  0
   -9.0495   19.5988  -28.9437 C   0  0  0  0  0  0  0  0  0  0  0  0
  -10.1029   18.8255  -28.5210 C   0  0  0  0  0  0  0  0  0  0  0  0
  -12.8677   14.9229  -28.4099 C   0  0  0  0  0  0  0  0  0  0  0  0
  -13.8138   15.4934  -27.5961 C   0  0  0  0  0  0  0  0  0  0  0  0
  -14.8545   14.7721  -27.0034 C   0  0  0  0  0  0  0  0  0  0  0  0
  -15.7982   15.3138  -26.1922 O   0  0  0  0  0  0  0  0  0  0  0  0
  -15.8441   16.5912  -25.6708 C   0  0  0  0  0  0  0  0  0  0  0  0
  -16.7882   16.8058  -24.5385 C   0  0  0  0  0  0  0  0  0  0  0  0
  -18.1234   17.3741  -25.0101 C   0  0  0  0  0  0  0  0  0  0  0  0
  -18.4307   18.4868  -24.1376 N   0  0  0  0  0  4  0  0  0  0  0  0
  -18.4918   18.0568  -22.7329 C   0  0  0  0  0  0  0  0  0  0  0  0
  -18.5802   19.3540  -21.9224 C   0  0  0  0  0  0  0  0  0  0  0  0
  -19.6674   20.1200  -22.2908 O   0  0  0  0  0  0  0  0  0  0  0  0
  -19.7098   20.4345  -23.6313 C   0  0  0  0  0  0  0  0  0  0  0  0
  -19.6857   19.1278  -24.4247 C   0  0  0  0  0  0  0  0  0  0  0  0
  1  2  1  0
  2  3  1  0
  3  4  2  0
  4  5  1  0
  5  6  2  0
  6  7  1  0
  7  8  2  0
  8  9  1  0
  9 10  1  0
 10 11  1  0
 11 12  2  0
 12 13  1  0
 13 14  2  0
 14 15  1  0
 15 16  2  0
 15 17  1  0
 18 17  1  1
 18 19  1  0
 20 19  1  1
 20 21  1  0
 22 21  1  6
 22 23  1  0
 24 23  1  1
 24 25  1  0
 24 26  1  0
 22 27  1  0
 14 28  1  0
 28 29  2  0
  9 30  2  0
 30 31  1  0
 31 32  2  0
 32 33  1  0
 33 34  1  0
 34 35  1  0
 35 36  1  0
 37 36  1  0
 37 38  1  0
 38 39  1  0
 39 40  1  0
 40 41  1  0
 41 42  1  0
 32  3  1  0
 42 37  1  0
 30  5  1  0
 29 11  1  0
 26 18  1  0
 27 18  1  0
 25 20  1  0
M  CHG  1  37   1
M  END
$$$$
CHEMBL3763627_diffdock_9
     RDKit          3D

 42 48  0  0  0  0  0  0  0  0999 V2000
   -7.8378   16.1679  -30.5573 C   0  0  0  0  0  0  0  0  0  0  0  0
   -8.8949   16.6614  -29.7976 O   0  0  0  0  0  0  0  0  0  0  0  0
   -9.9246   15.9176  -29.2457 C   0  0  0  0  0  0  0  0  0  0  0  0
  -10.0218   14.5580  -29.3703 C   0  0  0  0  0  0  0  0  0  0  0  0
  -11.0829   13.8523  -28.7927 C   0  0  0  0  0  0  0  0  0  0  0  0
  -11.1752   12.5232  -28.9112 N   0  0  0  0  0  0  0  0  0  0  0  0
  -12.1745   11.8080  -28.3683 C   0  0  0  0  0  0  0  0  0  0  0  0
  -13.1169   12.4491  -27.6811 N   0  0  0  0  0  0  0  0  0  0  0  0
  -13.0846   13.7667  -27.5263 C   0  0  0  0  0  0  0  0  0  0  0  0
  -14.0971   14.4201  -26.7887 N   0  0  0  0  0  0  0  0  0  0  0  0
  -14.8786   13.7161  -25.8417 C   0  0  0  0  0  0  0  0  0  0  0  0
  -15.4723   14.2547  -24.7443 C   0  0  0  0  0  0  0  0  0  0  0  0
  -16.2531   13.4846  -23.8649 C   0  0  0  0  0  0  0  0  0  0  0  0
  -16.4453   12.1591  -24.0795 C   0  0  0  0  0  0  0  0  0  0  0  0
  -17.2615   11.3095  -23.1889 C   0  0  0  0  0  0  0  0  0  0  0  0
  -16.9516   11.2254  -21.9767 O   0  0  0  0  0  0  0  0  0  0  0  0
  -18.3769   10.5821  -23.6310 N   0  0  0  0  0  0  0  0  0  0  0  0
  -18.8710    9.3770  -22.9793 C   0  0  2  0  0  0  0  0  0  0  0  0
  -19.1654    9.6505  -21.5065 C   0  0  0  0  0  0  0  0  0  0  0  0
  -19.5609    8.3471  -20.8558 C   0  0  1  0  0  0  0  0  0  0  0  0
  -20.7320    7.6951  -21.5409 C   0  0  0  0  0  0  0  0  0  0  0  0
  -20.3745    7.4545  -22.9956 C   0  0  2  0  0  0  0  0  0  0  0  0
  -19.2187    6.5086  -23.1051 C   0  0  0  0  0  0  0  0  0  0  0  0
  -18.0701    7.0883  -22.3098 C   0  0  2  0  0  0  0  0  0  0  0  0
  -18.4151    7.3557  -20.8738 C   0  0  0  0  0  0  0  0  0  0  0  0
  -17.7009    8.3977  -22.9705 C   0  0  0  0  0  0  0  0  0  0  0  0
  -20.0975    8.8069  -23.6015 C   0  0  0  0  0  0  0  0  0  0  0  0
  -15.8619   11.5870  -25.1724 C   0  0  0  0  0  0  0  0  0  0  0  0
  -15.0989   12.3366  -26.0339 C   0  0  0  0  0  0  0  0  0  0  0  0
  -12.0507   14.5276  -28.0850 C   0  0  0  0  0  0  0  0  0  0  0  0
  -11.9452   15.8905  -27.9647 C   0  0  0  0  0  0  0  0  0  0  0  0
  -10.9027   16.6338  -28.5263 C   0  0  0  0  0  0  0  0  0  0  0  0
  -10.7803   17.9816  -28.4243 O   0  0  0  0  0  0  0  0  0  0  0  0
  -11.3041   18.8153  -27.4566 C   0  0  0  0  0  0  0  0  0  0  0  0
  -11.5994   20.2123  -27.8818 C   0  0  0  0  0  0  0  0  0  0  0  0
  -10.8550   21.2363  -27.0302 C   0  0  0  0  0  0  0  0  0  0  0  0
  -11.8633   22.0142  -26.3431 N   0  0  0  0  0  4  0  0  0  0  0  0
  -11.7349   21.8772  -24.8848 C   0  0  0  0  0  0  0  0  0  0  0  0
  -12.6888   22.9241  -24.3005 C   0  0  0  0  0  0  0  0  0  0  0  0
  -13.9850   22.7431  -24.7385 O   0  0  0  0  0  0  0  0  0  0  0  0
  -14.1233   22.7373  -26.1091 C   0  0  0  0  0  0  0  0  0  0  0  0
  -13.2138   21.6450  -26.6718 C   0  0  0  0  0  0  0  0  0  0  0  0
  1  2  1  0
  2  3  1  0
  3  4  2  0
  4  5  1  0
  5  6  2  0
  6  7  1  0
  7  8  2  0
  8  9  1  0
  9 10  1  0
 10 11  1  0
 11 12  2  0
 12 13  1  0
 13 14  2  0
 14 15  1  0
 15 16  2  0
 15 17  1  0
 18 17  1  6
 18 19  1  0
 20 19  1  6
 20 21  1  0
 22 21  1  1
 22 23  1  0
 24 23  1  6
 24 25  1  0
 24 26  1  0
 22 27  1  0
 14 28  1  0
 28 29  2  0
  9 30  2  0
 30 31  1  0
 31 32  2  0
 32 33  1  0
 33 34  1  0
 34 35  1  0
 35 36  1  0
 37 36  1  0
 37 38  1  0
 38 39  1  0
 39 40  1  0
 40 41  1  0
 41 42  1  0
 32  3  1  0
 42 37  1  0
 30  5  1  0
 29 11  1  0
 26 18  1  0
 27 18  1  0
 25 20  1  0
M  CHG  1  37   1
M  END
$$$$
CHEMBL3763627_diffdock_10
     RDKit          3D

 42 48  0  0  0  0  0  0  0  0999 V2000
 -112.4689   16.5956  -39.6526 C   0  0  0  0  0  0  0  0  0  0  0  0
 -111.3368   16.9098  -38.9057 O   0  0  0  0  0  0  0  0  0  0  0  0
 -110.6035   16.0348  -38.1217 C   0  0  0  0  0  0  0  0  0  0  0  0
 -111.1729   15.0633  -37.3437 C   0  0  0  0  0  0  0  0  0  0  0  0
 -110.3869   14.2031  -36.5692 C   0  0  0  0  0  0  0  0  0  0  0  0
 -110.9435   13.2512  -35.8123 N   0  0  0  0  0  0  0  0  0  0  0  0
 -110.2250   12.4025  -35.0584 C   0  0  0  0  0  0  0  0  0  0  0  0
 -108.8986   12.5123  -35.0632 N   0  0  0  0  0  0  0  0  0  0  0  0
 -108.2835   13.4354  -35.7918 C   0  0  0  0  0  0  0  0  0  0  0  0
 -106.8737   13.5264  -35.7797 N   0  0  0  0  0  0  0  0  0  0  0  0
 -106.0927   12.6404  -34.9997 C   0  0  0  0  0  0  0  0  0  0  0  0
 -104.9053   12.0926  -35.3697 C   0  0  0  0  0  0  0  0  0  0  0  0
 -104.1818   11.2369  -34.5210 C   0  0  0  0  0  0  0  0  0  0  0  0
 -104.6467   10.9205  -33.2866 C   0  0  0  0  0  0  0  0  0  0  0  0
 -103.9210   10.0319  -32.3565 C   0  0  0  0  0  0  0  0  0  0  0  0
 -102.6874   10.1931  -32.1994 O   0  0  0  0  0  0  0  0  0  0  0  0
 -104.5440    9.0047  -31.6317 N   0  0  0  0  0  0  0  0  0  0  0  0
 -103.8804    7.7687  -31.2407 C   0  0  2  0  0  0  0  0  0  0  0  0
 -102.8908    7.3317  -32.3177 C   0  0  0  0  0  0  0  0  0  0  0  0
 -102.3205    5.9926  -31.9173 C   0  0  1  0  0  0  0  0  0  0  0  0
 -101.6765    6.0262  -30.5571 C   0  0  0  0  0  0  0  0  0  0  0  0
 -102.7101    6.4689  -29.5384 C   0  0  2  0  0  0  0  0  0  0  0  0
 -103.8361    5.4842  -29.4677 C   0  0  0  0  0  0  0  0  0  0  0  0
 -104.4120    5.3399  -30.8588 C   0  0  2  0  0  0  0  0  0  0  0  0
 -103.3966    4.9265  -31.8838 C   0  0  0  0  0  0  0  0  0  0  0  0
 -104.9639    6.6943  -31.2437 C   0  0  0  0  0  0  0  0  0  0  0  0
 -103.1520    7.8517  -29.9448 C   0  0  0  0  0  0  0  0  0  0  0  0
 -105.8369   11.4533  -32.8847 C   0  0  0  0  0  0  0  0  0  0  0  0
 -106.5461   12.2902  -33.7113 C   0  0  0  0  0  0  0  0  0  0  0  0
 -109.0165   14.3278  -36.5832 C   0  0  0  0  0  0  0  0  0  0  0  0
 -108.4541   15.3042  -37.3664 C   0  0  0  0  0  0  0  0  0  0  0  0
 -109.2021   16.1843  -38.1540 C   0  0  0  0  0  0  0  0  0  0  0  0
 -108.6683   17.1597  -38.9323 O   0  0  0  0  0  0  0  0  0  0  0  0
 -107.5724   17.0806  -39.7679 C   0  0  0  0  0  0  0  0  0  0  0  0
 -107.8627   16.9826  -41.2259 C   0  0  0  0  0  0  0  0  0  0  0  0
 -106.5855   16.9137  -42.0577 C   0  0  0  0  0  0  0  0  0  0  0  0
 -106.7011   17.9328  -43.0785 N   0  0  0  0  0  4  0  0  0  0  0  0
 -105.8418   17.6268  -44.2316 C   0  0  0  0  0  0  0  0  0  0  0  0
 -106.2448   18.6389  -45.3088 C   0  0  0  0  0  0  0  0  0  0  0  0
 -106.1042   19.9407  -44.8727 O   0  0  0  0  0  0  0  0  0  0  0  0
 -106.7968   20.2281  -43.7171 C   0  0  0  0  0  0  0  0  0  0  0  0
 -106.3369   19.2514  -42.6347 C   0  0  0  0  0  0  0  0  0  0  0  0
  1  2  1  0
  2  3  1  0
  3  4  2  0
  4  5  1  0
  5  6  2  0
  6  7  1  0
  7  8  2  0
  8  9  1  0
  9 10  1  0
 10 11  1  0
 11 12  2  0
 12 13  1  0
 13 14  2  0
 14 15  1  0
 15 16  2  0
 15 17  1  0
 18 17  1  6
 18 19  1  0
 20 19  1  1
 20 21  1  0
 22 21  1  6
 22 23  1  0
 24 23  1  1
 24 25  1  0
 24 26  1  0
 22 27  1  0
 14 28  1  0
 28 29  2  0
  9 30  2  0
 30 31  1  0
 31 32  2  0
 32 33  1  0
 33 34  1  0
 34 35  1  0
 35 36  1  0
 37 36  1  0
 37 38  1  0
 38 39  1  0
 39 40  1  0
 40 41  1  0
 41 42  1  0
 32  3  1  0
 42 37  1  0
 30  5  1  0
 29 11  1  0
 26 18  1  0
 27 18  1  0
 25 20  1  0
M  CHG  1  37   1
M  END
$$$$
CHEMBL2032376_diffdock_1
     RDKit          3D

 39 43  0  0  0  0  0  0  0  0999 V2000
  -14.1918   19.8892  -20.8790 C   0  0  0  0  0  0  0  0  0  0  0  0
  -14.2477   18.6481  -21.3336 C   0  0  0  0  0  0  0  0  0  0  0  0
  -14.5410   18.3291  -22.7177 C   0  0  0  0  0  0  0  0  0  0  0  0
  -15.6983   18.5517  -23.1542 O   0  0  0  0  0  0  0  0  0  0  0  0
  -13.6147   17.7793  -23.6288 N   0  0  0  0  0  0  0  0  0  0  0  0
  -13.9355   17.2868  -24.9254 C   0  0  0  0  0  0  0  0  0  0  0  0
  -15.2407   17.0474  -25.3209 C   0  0  0  0  0  0  0  0  0  0  0  0
  -15.4893   16.5724  -26.5934 C   0  0  0  0  0  0  0  0  0  0  0  0
  -14.4545   16.3339  -27.4742 C   0  0  0  0  0  0  0  0  0  0  0  0
  -13.1352   16.5649  -27.1054 C   0  0  0  0  0  0  0  0  0  0  0  0
  -12.1437   16.3016  -28.0560 N   0  0  0  0  0  0  0  0  0  0  0  0
  -11.3094   17.2863  -28.6492 C   0  0  0  0  0  0  0  0  0  0  0  0
  -11.4689   18.4902  -28.2988 O   0  0  0  0  0  0  0  0  0  0  0  0
  -10.3343   16.8947  -29.6054 N   0  0  0  0  0  0  0  0  0  0  0  0
   -9.5136   17.9499  -30.1678 C   0  0  0  0  0  0  0  0  0  0  0  0
  -10.1159   15.5488  -30.0362 C   0  0  0  0  0  0  0  0  0  0  0  0
  -11.0057   14.5800  -29.3885 C   0  0  0  0  0  0  0  0  0  0  0  0
  -10.8945   13.2264  -29.7224 C   0  0  0  0  0  0  0  0  0  0  0  0
  -11.7175   12.3606  -29.1205 N   0  0  0  0  0  0  0  0  0  0  0  0
  -12.6515   12.6718  -28.2151 C   0  0  0  0  0  0  0  0  0  0  0  0
  -13.5144   11.7488  -27.5924 N   0  0  0  0  0  0  0  0  0  0  0  0
  -14.6265   12.0381  -26.7670 C   0  0  0  0  0  0  0  0  0  0  0  0
  -14.7435   13.1387  -25.9720 C   0  0  0  0  0  0  0  0  0  0  0  0
  -15.8603   13.3672  -25.1834 C   0  0  0  0  0  0  0  0  0  0  0  0
  -16.9235   12.4764  -25.1661 C   0  0  0  0  0  0  0  0  0  0  0  0
  -18.0714   12.7193  -24.3494 N   0  0  0  0  0  0  0  0  0  0  0  0
  -18.3664   14.1066  -23.9809 C   0  0  0  0  0  0  0  0  0  0  0  0
  -19.5800   14.1999  -23.1157 C   0  0  0  0  0  0  0  0  0  0  0  0
  -19.6594   13.1068  -22.1519 N   0  0  0  0  0  4  0  0  0  0  0  0
  -20.8421   13.3636  -21.3473 C   0  0  0  0  0  0  0  0  0  0  0  0
  -19.8975   11.9085  -22.9116 C   0  0  0  0  0  0  0  0  0  0  0  0
  -18.8611   11.6018  -23.9367 C   0  0  0  0  0  0  0  0  0  0  0  0
  -16.8219   11.3616  -25.9624 C   0  0  0  0  0  0  0  0  0  0  0  0
  -15.7105   11.1473  -26.7385 C   0  0  0  0  0  0  0  0  0  0  0  0
  -15.6226   10.0319  -27.5276 O   0  0  0  0  0  0  0  0  0  0  0  0
  -16.7080    9.1300  -27.5723 C   0  0  0  0  0  0  0  0  0  0  0  0
  -12.7241   14.0064  -27.9194 N   0  0  0  0  0  0  0  0  0  0  0  0
  -11.9468   14.9341  -28.4690 C   0  0  0  0  0  0  0  0  0  0  0  0
  -12.9214   17.0384  -25.8292 C   0  0  0  0  0  0  0  0  0  0  0  0
  1  2  2  0
  2  3  1  0
  3  4  2  0
  3  5  1  0
  5  6  1  0
  6  7  2  0
  7  8  1  0
  8  9  2  0
  9 10  1  0
 10 11  1  0
 11 12  1  0
 12 13  2  0
 12 14  1  0
 14 15  1  0
 14 16  1  0
 16 17  1  0
 17 18  2  0
 18 19  1  0
 19 20  2  0
 20 21  1  0
 21 22  1  0
 22 23  2  0
 23 24  1  0
 24 25  2  0
 25 26  1  0
 26 27  1  0
 27 28  1  0
 28 29  1  0
 29 30  1  0
 29 31  1  0
 31 32  1  0
 25 33  1  0
 33 34  2  0
 34 35  1  0
 35 36  1  0
 20 37  1  0
 37 38  2  0
 10 39  2  0
 39  6  1  0
 38 11  1  0
 38 17  1  0
 34 22  1  0
 32 26  1  0
M  CHG  1  29   1
M  END
$$$$
CHEMBL2032376_diffdock_2
     RDKit          3D

 39 43  0  0  0  0  0  0  0  0999 V2000
  -13.1794   18.3405  -20.4292 C   0  0  0  0  0  0  0  0  0  0  0  0
  -14.0625   17.7488  -21.2166 C   0  0  0  0  0  0  0  0  0  0  0  0
  -14.1273   17.9872  -22.6458 C   0  0  0  0  0  0  0  0  0  0  0  0
  -14.6786   19.0395  -23.0558 O   0  0  0  0  0  0  0  0  0  0  0  0
  -13.6118   17.1169  -23.6294 N   0  0  0  0  0  0  0  0  0  0  0  0
  -13.8798   17.2079  -25.0246 C   0  0  0  0  0  0  0  0  0  0  0  0
  -15.1345   17.5279  -25.5149 C   0  0  0  0  0  0  0  0  0  0  0  0
  -15.3322   17.6043  -26.8794 C   0  0  0  0  0  0  0  0  0  0  0  0
  -14.2961   17.3661  -27.7587 C   0  0  0  0  0  0  0  0  0  0  0  0
  -13.0267   17.0431  -27.2959 C   0  0  0  0  0  0  0  0  0  0  0  0
  -12.0292   16.8194  -28.2504 N   0  0  0  0  0  0  0  0  0  0  0  0
  -11.2079   17.8314  -28.8152 C   0  0  0  0  0  0  0  0  0  0  0  0
  -11.3856   19.0231  -28.4336 O   0  0  0  0  0  0  0  0  0  0  0  0
  -10.2250   17.4793  -29.7787 N   0  0  0  0  0  0  0  0  0  0  0  0
   -9.4183   18.5607  -30.3109 C   0  0  0  0  0  0  0  0  0  0  0  0
   -9.9861   16.1485  -30.2443 C   0  0  0  0  0  0  0  0  0  0  0  0
  -10.8633   15.1502  -29.6248 C   0  0  0  0  0  0  0  0  0  0  0  0
  -10.7318   13.8076  -29.9940 C   0  0  0  0  0  0  0  0  0  0  0  0
  -11.5435   12.9144  -29.4174 N   0  0  0  0  0  0  0  0  0  0  0  0
  -12.4840   13.1881  -28.5066 C   0  0  0  0  0  0  0  0  0  0  0  0
  -13.3349   12.2366  -27.9108 N   0  0  0  0  0  0  0  0  0  0  0  0
  -14.4098   12.4846  -27.0249 C   0  0  0  0  0  0  0  0  0  0  0  0
  -14.5633   13.6157  -26.2806 C   0  0  0  0  0  0  0  0  0  0  0  0
  -15.6403   13.8007  -25.4280 C   0  0  0  0  0  0  0  0  0  0  0  0
  -16.6240   12.8322  -25.2906 C   0  0  0  0  0  0  0  0  0  0  0  0
  -17.7313   13.0306  -24.4085 N   0  0  0  0  0  0  0  0  0  0  0  0
  -18.0782   14.4077  -24.0468 C   0  0  0  0  0  0  0  0  0  0  0  0
  -19.2399   14.4543  -23.1095 C   0  0  0  0  0  0  0  0  0  0  0  0
  -19.2007   13.3789  -22.1237 N   0  0  0  0  0  4  0  0  0  0  0  0
  -20.3441   13.5891  -21.2516 C   0  0  0  0  0  0  0  0  0  0  0  0
  -19.4192   12.1540  -22.8459 C   0  0  0  0  0  0  0  0  0  0  0  0
  -18.4323   11.8816  -23.9279 C   0  0  0  0  0  0  0  0  0  0  0  0
  -16.4848   11.6856  -26.0344 C   0  0  0  0  0  0  0  0  0  0  0  0
  -15.4134   11.5151  -26.8749 C   0  0  0  0  0  0  0  0  0  0  0  0
  -15.2873   10.3672  -27.6105 O   0  0  0  0  0  0  0  0  0  0  0  0
  -16.2504    9.3450  -27.4661 C   0  0  0  0  0  0  0  0  0  0  0  0
  -12.5766   14.5132  -28.1760 N   0  0  0  0  0  0  0  0  0  0  0  0
  -11.8115   15.4662  -28.6989 C   0  0  0  0  0  0  0  0  0  0  0  0
  -12.8630   16.9749  -25.9294 C   0  0  0  0  0  0  0  0  0  0  0  0
  1  2  2  0
  2  3  1  0
  3  4  2  0
  3  5  1  0
  5  6  1  0
  6  7  2  0
  7  8  1  0
  8  9  2  0
  9 10  1  0
 10 11  1  0
 11 12  1  0
 12 13  2  0
 12 14  1  0
 14 15  1  0
 14 16  1  0
 16 17  1  0
 17 18  2  0
 18 19  1  0
 19 20  2  0
 20 21  1  0
 21 22  1  0
 22 23  2  0
 23 24  1  0
 24 25  2  0
 25 26  1  0
 26 27  1  0
 27 28  1  0
 28 29  1  0
 29 30  1  0
 29 31  1  0
 31 32  1  0
 25 33  1  0
 33 34  2  0
 34 35  1  0
 35 36  1  0
 20 37  1  0
 37 38  2  0
 10 39  2  0
 39  6  1  0
 38 11  1  0
 38 17  1  0
 34 22  1  0
 32 26  1  0
M  CHG  1  29   1
M  END
$$$$
CHEMBL2032376_diffdock_3
     RDKit          3D

 39 43  0  0  0  0  0  0  0  0999 V2000
  -14.0741   17.1810  -19.9400 C   0  0  0  0  0  0  0  0  0  0  0  0
  -13.4599   17.5371  -21.0563 C   0  0  0  0  0  0  0  0  0  0  0  0
  -14.0353   17.3311  -22.3716 C   0  0  0  0  0  0  0  0  0  0  0  0
  -15.1418   16.7415  -22.4586 O   0  0  0  0  0  0  0  0  0  0  0  0
  -13.4417   17.7469  -23.5821 N   0  0  0  0  0  0  0  0  0  0  0  0
  -13.7901   17.2610  -24.8741 C   0  0  0  0  0  0  0  0  0  0  0  0
  -15.1065   17.0796  -25.2631 C   0  0  0  0  0  0  0  0  0  0  0  0
  -15.3818   16.6079  -26.5314 C   0  0  0  0  0  0  0  0  0  0  0  0
  -14.3626   16.3158  -27.4142 C   0  0  0  0  0  0  0  0  0  0  0  0
  -13.0326   16.4879  -27.0518 C   0  0  0  0  0  0  0  0  0  0  0  0
  -12.0580   16.1726  -28.0041 N   0  0  0  0  0  0  0  0  0  0  0  0
  -11.1029   17.0893  -28.5189 C   0  0  0  0  0  0  0  0  0  0  0  0
  -11.1296   18.2784  -28.0913 O   0  0  0  0  0  0  0  0  0  0  0  0
  -10.1595   16.6491  -29.4855 N   0  0  0  0  0  0  0  0  0  0  0  0
   -9.2104   17.6353  -29.9651 C   0  0  0  0  0  0  0  0  0  0  0  0
  -10.0890   15.3175  -30.0020 C   0  0  0  0  0  0  0  0  0  0  0  0
  -11.0986   14.4195  -29.4325 C   0  0  0  0  0  0  0  0  0  0  0  0
  -11.1375   13.0865  -29.8543 C   0  0  0  0  0  0  0  0  0  0  0  0
  -12.0678   12.2857  -29.3228 N   0  0  0  0  0  0  0  0  0  0  0  0
  -12.9787   12.6448  -28.4115 C   0  0  0  0  0  0  0  0  0  0  0  0
  -13.9557   11.7906  -27.8636 N   0  0  0  0  0  0  0  0  0  0  0  0
  -14.9476   12.1236  -26.9113 C   0  0  0  0  0  0  0  0  0  0  0  0
  -14.8936   13.1935  -26.0691 C   0  0  0  0  0  0  0  0  0  0  0  0
  -15.8988   13.4679  -25.1550 C   0  0  0  0  0  0  0  0  0  0  0  0
  -17.0198   12.6570  -25.0531 C   0  0  0  0  0  0  0  0  0  0  0  0
  -18.0517   12.9467  -24.1071 N   0  0  0  0  0  0  0  0  0  0  0  0
  -18.7545   11.8157  -23.4953 C   0  0  0  0  0  0  0  0  0  0  0  0
  -19.8120   12.2737  -22.5455 C   0  0  0  0  0  0  0  0  0  0  0  0
  -20.5171   13.4565  -23.0290 N   0  0  0  0  0  4  0  0  0  0  0  0
  -21.5463   13.7434  -22.0438 C   0  0  0  0  0  0  0  0  0  0  0  0
  -19.5689   14.5380  -23.0003 C   0  0  0  0  0  0  0  0  0  0  0  0
  -18.3417   14.3153  -23.8148 C   0  0  0  0  0  0  0  0  0  0  0  0
  -17.0902   11.5740  -25.8954 C   0  0  0  0  0  0  0  0  0  0  0  0
  -16.0880   11.3138  -26.7960 C   0  0  0  0  0  0  0  0  0  0  0  0
  -16.1713   10.2308  -27.6295 O   0  0  0  0  0  0  0  0  0  0  0  0
  -17.2536    9.3347  -27.4918 C   0  0  0  0  0  0  0  0  0  0  0  0
  -12.9028   13.9568  -28.0286 N   0  0  0  0  0  0  0  0  0  0  0  0
  -12.0118   14.8209  -28.5046 C   0  0  0  0  0  0  0  0  0  0  0  0
  -12.7921   16.9597  -25.7797 C   0  0  0  0  0  0  0  0  0  0  0  0
  1  2  2  0
  2  3  1  0
  3  4  2  0
  3  5  1  0
  5  6  1  0
  6  7  2  0
  7  8  1  0
  8  9  2  0
  9 10  1  0
 10 11  1  0
 11 12  1  0
 12 13  2  0
 12 14  1  0
 14 15  1  0
 14 16  1  0
 16 17  1  0
 17 18  2  0
 18 19  1  0
 19 20  2  0
 20 21  1  0
 21 22  1  0
 22 23  2  0
 23 24  1  0
 24 25  2  0
 25 26  1  0
 26 27  1  0
 27 28  1  0
 28 29  1  0
 29 30  1  0
 29 31  1  0
 31 32  1  0
 25 33  1  0
 33 34  2  0
 34 35  1  0
 35 36  1  0
 20 37  1  0
 37 38  2  0
 10 39  2  0
 39  6  1  0
 38 11  1  0
 38 17  1  0
 34 22  1  0
 32 26  1  0
M  CHG  1  29   1
M  END
$$$$
CHEMBL2032376_diffdock_4
     RDKit          3D

 39 43  0  0  0  0  0  0  0  0999 V2000
  -14.3635   17.8071  -20.2509 C   0  0  0  0  0  0  0  0  0  0  0  0
  -14.5906   16.8669  -21.1535 C   0  0  0  0  0  0  0  0  0  0  0  0
  -14.8242   17.1605  -22.5545 C   0  0  0  0  0  0  0  0  0  0  0  0
  -15.9488   17.6049  -22.8967 O   0  0  0  0  0  0  0  0  0  0  0  0
  -13.8731   16.9838  -23.5815 N   0  0  0  0  0  0  0  0  0  0  0  0
  -14.1552   17.0342  -24.9760 C   0  0  0  0  0  0  0  0  0  0  0  0
  -15.4228   17.3059  -25.4623 C   0  0  0  0  0  0  0  0  0  0  0  0
  -15.6339   17.3444  -26.8264 C   0  0  0  0  0  0  0  0  0  0  0  0
  -14.5986   17.1158  -27.7092 C   0  0  0  0  0  0  0  0  0  0  0  0
  -13.3165   16.8410  -27.2504 C   0  0  0  0  0  0  0  0  0  0  0  0
  -12.3209   16.6240  -28.2084 N   0  0  0  0  0  0  0  0  0  0  0  0
  -11.4623   17.6304  -28.7256 C   0  0  0  0  0  0  0  0  0  0  0  0
  -11.6023   18.8104  -28.2948 O   0  0  0  0  0  0  0  0  0  0  0  0
  -10.4855   17.2862  -29.6981 N   0  0  0  0  0  0  0  0  0  0  0  0
   -9.6394   18.3611  -30.1799 C   0  0  0  0  0  0  0  0  0  0  0  0
  -10.2885   15.9689  -30.2184 C   0  0  0  0  0  0  0  0  0  0  0  0
  -11.2028   14.9756  -29.6462 C   0  0  0  0  0  0  0  0  0  0  0  0
  -11.1141   13.6461  -30.0713 C   0  0  0  0  0  0  0  0  0  0  0  0
  -11.9592   12.7574  -29.5372 N   0  0  0  0  0  0  0  0  0  0  0  0
  -12.8959   13.0242  -28.6205 C   0  0  0  0  0  0  0  0  0  0  0  0
  -13.7822   12.0778  -28.0699 N   0  0  0  0  0  0  0  0  0  0  0  0
  -14.7598   12.2994  -27.0714 C   0  0  0  0  0  0  0  0  0  0  0  0
  -14.8515   13.4216  -26.3038 C   0  0  0  0  0  0  0  0  0  0  0  0
  -15.8337   13.5805  -25.3388 C   0  0  0  0  0  0  0  0  0  0  0  0
  -16.7804   12.5935  -25.1062 C   0  0  0  0  0  0  0  0  0  0  0  0
  -17.7898   12.7650  -24.1085 N   0  0  0  0  0  0  0  0  0  0  0  0
  -18.7975   11.7104  -23.9680 C   0  0  0  0  0  0  0  0  0  0  0  0
  -19.7909   12.0371  -22.9020 C   0  0  0  0  0  0  0  0  0  0  0  0
  -20.1420   13.4536  -22.8864 N   0  0  0  0  0  4  0  0  0  0  0  0
  -21.1528   13.6074  -21.8536 C   0  0  0  0  0  0  0  0  0  0  0  0
  -18.9654   14.1617  -22.4574 C   0  0  0  0  0  0  0  0  0  0  0  0
  -17.7627   13.9503  -23.3104 C   0  0  0  0  0  0  0  0  0  0  0  0
  -16.7026   11.4556  -25.8720 C   0  0  0  0  0  0  0  0  0  0  0  0
  -15.7249   11.3110  -26.8242 C   0  0  0  0  0  0  0  0  0  0  0  0
  -15.6591   10.1715  -27.5804 O   0  0  0  0  0  0  0  0  0  0  0  0
  -16.5528    9.1118  -27.3121 C   0  0  0  0  0  0  0  0  0  0  0  0
  -12.9461   14.3366  -28.2345 N   0  0  0  0  0  0  0  0  0  0  0  0
  -12.1459   15.2843  -28.7126 C   0  0  0  0  0  0  0  0  0  0  0  0
  -13.1396   16.8097  -25.8843 C   0  0  0  0  0  0  0  0  0  0  0  0
  1  2  2  0
  2  3  1  0
  3  4  2  0
  3  5  1  0
  5  6  1  0
  6  7  2  0
  7  8  1  0
  8  9  2  0
  9 10  1  0
 10 11  1  0
 11 12  1  0
 12 13  2  0
 12 14  1  0
 14 15  1  0
 14 16  1  0
 16 17  1  0
 17 18  2  0
 18 19  1  0
 19 20  2  0
 20 21  1  0
 21 22  1  0
 22 23  2  0
 23 24  1  0
 24 25  2  0
 25 26  1  0
 26 27  1  0
 27 28  1  0
 28 29  1  0
 29 30  1  0
 29 31  1  0
 31 32  1  0
 25 33  1  0
 33 34  2  0
 34 35  1  0
 35 36  1  0
 20 37  1  0
 37 38  2  0
 10 39  2  0
 39  6  1  0
 38 11  1  0
 38 17  1  0
 34 22  1  0
 32 26  1  0
M  CHG  1  29   1
M  END
$$$$
CHEMBL2032376_diffdock_5
     RDKit          3D

 39 43  0  0  0  0  0  0  0  0999 V2000
  -14.0472   16.5719  -20.6794 C   0  0  0  0  0  0  0  0  0  0  0  0
  -14.8243   17.4916  -21.2275 C   0  0  0  0  0  0  0  0  0  0  0  0
  -15.0241   17.6015  -22.6599 C   0  0  0  0  0  0  0  0  0  0  0  0
  -16.1805   17.8412  -23.0894 O   0  0  0  0  0  0  0  0  0  0  0  0
  -14.0060   17.4583  -23.6261 N   0  0  0  0  0  0  0  0  0  0  0  0
  -14.2135   17.4165  -25.0339 C   0  0  0  0  0  0  0  0  0  0  0  0
  -15.4584   17.6272  -25.6021 C   0  0  0  0  0  0  0  0  0  0  0  0
  -15.5965   17.5770  -26.9751 C   0  0  0  0  0  0  0  0  0  0  0  0
  -14.5105   17.3200  -27.7863 C   0  0  0  0  0  0  0  0  0  0  0  0
  -13.2495   17.1048  -27.2446 C   0  0  0  0  0  0  0  0  0  0  0  0
  -12.1994   16.8537  -28.1337 N   0  0  0  0  0  0  0  0  0  0  0  0
  -11.3263   17.8452  -28.6555 C   0  0  0  0  0  0  0  0  0  0  0  0
  -11.5052   19.0437  -28.2963 O   0  0  0  0  0  0  0  0  0  0  0  0
  -10.2926   17.4660  -29.5532 N   0  0  0  0  0  0  0  0  0  0  0  0
   -9.4348   18.5274  -30.0441 C   0  0  0  0  0  0  0  0  0  0  0  0
  -10.0499   16.1265  -29.9913 C   0  0  0  0  0  0  0  0  0  0  0  0
  -10.9819   15.1503  -29.4183 C   0  0  0  0  0  0  0  0  0  0  0  0
  -10.8526   13.8019  -29.7667 C   0  0  0  0  0  0  0  0  0  0  0  0
  -11.7147   12.9292  -29.2335 N   0  0  0  0  0  0  0  0  0  0  0  0
  -12.7044   13.2287  -28.3851 C   0  0  0  0  0  0  0  0  0  0  0  0
  -13.6077   12.2986  -27.8346 N   0  0  0  0  0  0  0  0  0  0  0  0
  -14.6489   12.5584  -26.9126 C   0  0  0  0  0  0  0  0  0  0  0  0
  -14.8055   13.7207  -26.2188 C   0  0  0  0  0  0  0  0  0  0  0  0
  -15.8482   13.9160  -25.3267 C   0  0  0  0  0  0  0  0  0  0  0  0
  -16.7923   12.9261  -25.0954 C   0  0  0  0  0  0  0  0  0  0  0  0
  -17.8643   13.1353  -24.1732 N   0  0  0  0  0  0  0  0  0  0  0  0
  -18.5956   14.4028  -24.2518 C   0  0  0  0  0  0  0  0  0  0  0  0
  -19.6706   14.4829  -23.2184 C   0  0  0  0  0  0  0  0  0  0  0  0
  -19.2598   13.9011  -21.9445 N   0  0  0  0  0  4  0  0  0  0  0  0
  -20.3703   14.1075  -21.0300 C   0  0  0  0  0  0  0  0  0  0  0  0
  -19.1301   12.4853  -22.1645 C   0  0  0  0  0  0  0  0  0  0  0  0
  -18.1596   12.1043  -23.2284 C   0  0  0  0  0  0  0  0  0  0  0  0
  -16.6494   11.7479  -25.7873 C   0  0  0  0  0  0  0  0  0  0  0  0
  -15.6123   11.5677  -26.6678 C   0  0  0  0  0  0  0  0  0  0  0  0
  -15.4820   10.3882  -27.3508 O   0  0  0  0  0  0  0  0  0  0  0  0
  -16.6312    9.7742  -27.8946 C   0  0  0  0  0  0  0  0  0  0  0  0
  -12.7928   14.5585  -28.0726 N   0  0  0  0  0  0  0  0  0  0  0  0
  -11.9794   15.4925  -28.5557 C   0  0  0  0  0  0  0  0  0  0  0  0
  -13.1459   17.1614  -25.8718 C   0  0  0  0  0  0  0  0  0  0  0  0
  1  2  2  0
  2  3  1  0
  3  4  2  0
  3  5  1  0
  5  6  1  0
  6  7  2  0
  7  8  1  0
  8  9  2  0
  9 10  1  0
 10 11  1  0
 11 12  1  0
 12 13  2  0
 12 14  1  0
 14 15  1  0
 14 16  1  0
 16 17  1  0
 17 18  2  0
 18 19  1  0
 19 20  2  0
 20 21  1  0
 21 22  1  0
 22 23  2  0
 23 24  1  0
 24 25  2  0
 25 26  1  0
 26 27  1  0
 27 28  1  0
 28 29  1  0
 29 30  1  0
 29 31  1  0
 31 32  1  0
 25 33  1  0
 33 34  2  0
 34 35  1  0
 35 36  1  0
 20 37  1  0
 37 38  2  0
 10 39  2  0
 39  6  1  0
 38 11  1  0
 38 17  1  0
 34 22  1  0
 32 26  1  0
M  CHG  1  29   1
M  END
$$$$
CHEMBL2032376_diffdock_6
     RDKit          3D

 39 43  0  0  0  0  0  0  0  0999 V2000
  -19.0814   19.7470  -25.3062 C   0  0  0  0  0  0  0  0  0  0  0  0
  -17.8104   20.1096  -25.2482 C   0  0  0  0  0  0  0  0  0  0  0  0
  -16.7330   19.1677  -25.0128 C   0  0  0  0  0  0  0  0  0  0  0  0
  -16.4814   18.8247  -23.8302 O   0  0  0  0  0  0  0  0  0  0  0  0
  -15.9308   18.5961  -26.0229 N   0  0  0  0  0  0  0  0  0  0  0  0
  -14.7106   17.8970  -25.8017 C   0  0  0  0  0  0  0  0  0  0  0  0
  -14.3803   17.3629  -24.5678 C   0  0  0  0  0  0  0  0  0  0  0  0
  -13.1828   16.6922  -24.4157 C   0  0  0  0  0  0  0  0  0  0  0  0
  -12.3130   16.5480  -25.4768 C   0  0  0  0  0  0  0  0  0  0  0  0
  -12.6177   17.0732  -26.7263 C   0  0  0  0  0  0  0  0  0  0  0  0
  -11.6856   16.8821  -27.7515 N   0  0  0  0  0  0  0  0  0  0  0  0
  -10.7664   17.8662  -28.2034 C   0  0  0  0  0  0  0  0  0  0  0  0
  -10.7864   18.9997  -27.6445 O   0  0  0  0  0  0  0  0  0  0  0  0
   -9.8647   17.5521  -29.2553 N   0  0  0  0  0  0  0  0  0  0  0  0
   -8.9506   18.6013  -29.6641 C   0  0  0  0  0  0  0  0  0  0  0  0
   -9.8035   16.2877  -29.9204 C   0  0  0  0  0  0  0  0  0  0  0  0
  -10.7747   15.3152  -29.4097 C   0  0  0  0  0  0  0  0  0  0  0  0
  -10.8184   14.0371  -29.9759 C   0  0  0  0  0  0  0  0  0  0  0  0
  -11.7133   13.1667  -29.4956 N   0  0  0  0  0  0  0  0  0  0  0  0
  -12.5843   13.4069  -28.5092 C   0  0  0  0  0  0  0  0  0  0  0  0
  -13.5244   12.4809  -28.0165 N   0  0  0  0  0  0  0  0  0  0  0  0
  -14.5560   12.7241  -27.0792 C   0  0  0  0  0  0  0  0  0  0  0  0
  -14.5477   13.7209  -26.1500 C   0  0  0  0  0  0  0  0  0  0  0  0
  -15.5902   13.9087  -25.2562 C   0  0  0  0  0  0  0  0  0  0  0  0
  -16.7038   13.0815  -25.2653 C   0  0  0  0  0  0  0  0  0  0  0  0
  -17.7745   13.2817  -24.3394 N   0  0  0  0  0  0  0  0  0  0  0  0
  -18.0042   14.6417  -23.8445 C   0  0  0  0  0  0  0  0  0  0  0  0
  -19.1400   14.6903  -22.8761 C   0  0  0  0  0  0  0  0  0  0  0  0
  -19.1667   13.5280  -21.9938 N   0  0  0  0  0  4  0  0  0  0  0  0
  -20.2726   13.7436  -21.0759 C   0  0  0  0  0  0  0  0  0  0  0  0
  -19.4956   12.3961  -22.8186 C   0  0  0  0  0  0  0  0  0  0  0  0
  -18.5547   12.1503  -23.9470 C   0  0  0  0  0  0  0  0  0  0  0  0
  -16.7284   12.0716  -26.1962 C   0  0  0  0  0  0  0  0  0  0  0  0
  -15.6895   11.8967  -27.0756 C   0  0  0  0  0  0  0  0  0  0  0  0
  -15.7272   10.8859  -27.9984 O   0  0  0  0  0  0  0  0  0  0  0  0
  -16.1016    9.5883  -27.5867 C   0  0  0  0  0  0  0  0  0  0  0  0
  -12.5053   14.6692  -27.9856 N   0  0  0  0  0  0  0  0  0  0  0  0
  -11.6477   15.5956  -28.4019 C   0  0  0  0  0  0  0  0  0  0  0  0
  -13.8196   17.7365  -26.8445 C   0  0  0  0  0  0  0  0  0  0  0  0
  1  2  2  0
  2  3  1  0
  3  4  2  0
  3  5  1  0
  5  6  1  0
  6  7  2  0
  7  8  1  0
  8  9  2  0
  9 10  1  0
 10 11  1  0
 11 12  1  0
 12 13  2  0
 12 14  1  0
 14 15  1  0
 14 16  1  0
 16 17  1  0
 17 18  2  0
 18 19  1  0
 19 20  2  0
 20 21  1  0
 21 22  1  0
 22 23  2  0
 23 24  1  0
 24 25  2  0
 25 26  1  0
 26 27  1  0
 27 28  1  0
 28 29  1  0
 29 30  1  0
 29 31  1  0
 31 32  1  0
 25 33  1  0
 33 34  2  0
 34 35  1  0
 35 36  1  0
 20 37  1  0
 37 38  2  0
 10 39  2  0
 39  6  1  0
 38 11  1  0
 38 17  1  0
 34 22  1  0
 32 26  1  0
M  CHG  1  29   1
M  END
$$$$
CHEMBL2032376_diffdock_7
     RDKit          3D

 39 43  0  0  0  0  0  0  0  0999 V2000
  -14.6716   18.3010  -20.3295 C   0  0  0  0  0  0  0  0  0  0  0  0
  -14.5820   18.9618  -21.4721 C   0  0  0  0  0  0  0  0  0  0  0  0
  -14.9107   18.3670  -22.7534 C   0  0  0  0  0  0  0  0  0  0  0  0
  -16.1091   18.0715  -22.9898 O   0  0  0  0  0  0  0  0  0  0  0  0
  -13.9762   18.0887  -23.7731 N   0  0  0  0  0  0  0  0  0  0  0  0
  -14.3065   17.7348  -25.1119 C   0  0  0  0  0  0  0  0  0  0  0  0
  -15.6128   17.5166  -25.5157 C   0  0  0  0  0  0  0  0  0  0  0  0
  -15.8708   17.1787  -26.8295 C   0  0  0  0  0  0  0  0  0  0  0  0
  -14.8443   17.0563  -27.7432 C   0  0  0  0  0  0  0  0  0  0  0  0
  -13.5242   17.2694  -27.3669 C   0  0  0  0  0  0  0  0  0  0  0  0
  -12.5415   17.1292  -28.3523 N   0  0  0  0  0  0  0  0  0  0  0  0
  -11.8015   18.2028  -28.9157 C   0  0  0  0  0  0  0  0  0  0  0  0
  -12.0432   19.3727  -28.5030 O   0  0  0  0  0  0  0  0  0  0  0  0
  -10.8256   17.9338  -29.9124 N   0  0  0  0  0  0  0  0  0  0  0  0
  -10.1036   19.0751  -30.4414 C   0  0  0  0  0  0  0  0  0  0  0  0
  -10.5164   16.6308  -30.4138 C   0  0  0  0  0  0  0  0  0  0  0  0
  -11.3115   15.5662  -29.7939 C   0  0  0  0  0  0  0  0  0  0  0  0
  -11.1060   14.2426  -30.1964 C   0  0  0  0  0  0  0  0  0  0  0  0
  -11.8436   13.2880  -29.6187 N   0  0  0  0  0  0  0  0  0  0  0  0
  -12.7739   13.4824  -28.6775 C   0  0  0  0  0  0  0  0  0  0  0  0
  -13.5463   12.4668  -28.0809 N   0  0  0  0  0  0  0  0  0  0  0  0
  -14.6518   12.6294  -27.2130 C   0  0  0  0  0  0  0  0  0  0  0  0
  -14.8952   13.7372  -26.4577 C   0  0  0  0  0  0  0  0  0  0  0  0
  -15.9978   13.8374  -25.6239 C   0  0  0  0  0  0  0  0  0  0  0  0
  -16.9161   12.8029  -25.5177 C   0  0  0  0  0  0  0  0  0  0  0  0
  -18.0505   12.9140  -24.6549 N   0  0  0  0  0  0  0  0  0  0  0  0
  -19.1865   12.0219  -24.9018 C   0  0  0  0  0  0  0  0  0  0  0  0
  -20.2981   12.2660  -23.9349 C   0  0  0  0  0  0  0  0  0  0  0  0
  -20.4745   13.6843  -23.6392 N   0  0  0  0  0  4  0  0  0  0  0  0
  -21.6183   13.7711  -22.7469 C   0  0  0  0  0  0  0  0  0  0  0  0
  -19.3102   14.0958  -22.9011 C   0  0  0  0  0  0  0  0  0  0  0  0
  -18.0156   13.8859  -23.6075 C   0  0  0  0  0  0  0  0  0  0  0  0
  -16.6859   11.6787  -26.2730 C   0  0  0  0  0  0  0  0  0  0  0  0
  -15.5901   11.5925  -27.0947 C   0  0  0  0  0  0  0  0  0  0  0  0
  -15.3729   10.4660  -27.8420 O   0  0  0  0  0  0  0  0  0  0  0  0
  -16.4707    9.6557  -28.2051 C   0  0  0  0  0  0  0  0  0  0  0  0
  -12.9405   14.7919  -28.3150 N   0  0  0  0  0  0  0  0  0  0  0  0
  -12.2517   15.8022  -28.8364 C   0  0  0  0  0  0  0  0  0  0  0  0
  -13.3008   17.6047  -26.0492 C   0  0  0  0  0  0  0  0  0  0  0  0
  1  2  2  0
  2  3  1  0
  3  4  2  0
  3  5  1  0
  5  6  1  0
  6  7  2  0
  7  8  1  0
  8  9  2  0
  9 10  1  0
 10 11  1  0
 11 12  1  0
 12 13  2  0
 12 14  1  0
 14 15  1  0
 14 16  1  0
 16 17  1  0
 17 18  2  0
 18 19  1  0
 19 20  2  0
 20 21  1  0
 21 22  1  0
 22 23  2  0
 23 24  1  0
 24 25  2  0
 25 26  1  0
 26 27  1  0
 27 28  1  0
 28 29  1  0
 29 30  1  0
 29 31  1  0
 31 32  1  0
 25 33  1  0
 33 34  2  0
 34 35  1  0
 35 36  1  0
 20 37  1  0
 37 38  2  0
 10 39  2  0
 39  6  1  0
 38 11  1  0
 38 17  1  0
 34 22  1  0
 32 26  1  0
M  CHG  1  29   1
M  END
$$$$
CHEMBL2032376_diffdock_8
     RDKit          3D

 39 43  0  0  0  0  0  0  0  0999 V2000
  -20.0159   15.9667  -25.6318 C   0  0  0  0  0  0  0  0  0  0  0  0
  -19.1620   16.9590  -25.4412 C   0  0  0  0  0  0  0  0  0  0  0  0
  -17.7682   16.7442  -25.1024 C   0  0  0  0  0  0  0  0  0  0  0  0
  -17.4511   16.6518  -23.8898 O   0  0  0  0  0  0  0  0  0  0  0  0
  -16.7219   16.6287  -26.0418 N   0  0  0  0  0  0  0  0  0  0  0  0
  -15.3371   16.7766  -25.7470 C   0  0  0  0  0  0  0  0  0  0  0  0
  -14.8828   17.0840  -24.4757 C   0  0  0  0  0  0  0  0  0  0  0  0
  -13.5263   17.2115  -24.2508 C   0  0  0  0  0  0  0  0  0  0  0  0
  -12.6197   17.0364  -25.2759 C   0  0  0  0  0  0  0  0  0  0  0  0
  -13.0462   16.7273  -26.5613 C   0  0  0  0  0  0  0  0  0  0  0  0
  -12.0653   16.5623  -27.5446 N   0  0  0  0  0  0  0  0  0  0  0  0
  -11.2052   17.5923  -28.0107 C   0  0  0  0  0  0  0  0  0  0  0  0
  -11.3296   18.7444  -27.5061 O   0  0  0  0  0  0  0  0  0  0  0  0
  -10.2445   17.3013  -29.0159 N   0  0  0  0  0  0  0  0  0  0  0  0
   -9.3959   18.3975  -29.4422 C   0  0  0  0  0  0  0  0  0  0  0  0
  -10.0655   16.0172  -29.6190 C   0  0  0  0  0  0  0  0  0  0  0  0
  -10.9804   14.9975  -29.0966 C   0  0  0  0  0  0  0  0  0  0  0  0
  -10.9085   13.6961  -29.6039 C   0  0  0  0  0  0  0  0  0  0  0  0
  -11.7539   12.7826  -29.1140 N   0  0  0  0  0  0  0  0  0  0  0  0
  -12.6760   12.9993  -28.1697 C   0  0  0  0  0  0  0  0  0  0  0  0
  -13.5628   12.0275  -27.6662 N   0  0  0  0  0  0  0  0  0  0  0  0
  -14.6834   12.2420  -26.8295 C   0  0  0  0  0  0  0  0  0  0  0  0
  -14.8430   13.3084  -25.9964 C   0  0  0  0  0  0  0  0  0  0  0  0
  -15.9658   13.4633  -25.1986 C   0  0  0  0  0  0  0  0  0  0  0  0
  -16.9916   12.5294  -25.2107 C   0  0  0  0  0  0  0  0  0  0  0  0
  -18.1460   12.6963  -24.3842 N   0  0  0  0  0  0  0  0  0  0  0  0
  -18.3142   13.9795  -23.6968 C   0  0  0  0  0  0  0  0  0  0  0  0
  -19.5516   13.9978  -22.8609 C   0  0  0  0  0  0  0  0  0  0  0  0
  -19.7885   12.7221  -22.1928 N   0  0  0  0  0  4  0  0  0  0  0  0
  -20.9755   12.9091  -21.3754 C   0  0  0  0  0  0  0  0  0  0  0  0
  -20.1120   11.7739  -23.2252 C   0  0  0  0  0  0  0  0  0  0  0  0
  -19.0650   11.6075  -24.2717 C   0  0  0  0  0  0  0  0  0  0  0  0
  -16.8467   11.4481  -26.0456 C   0  0  0  0  0  0  0  0  0  0  0  0
  -15.7298   11.3069  -26.8304 C   0  0  0  0  0  0  0  0  0  0  0  0
  -15.5986   10.2242  -27.6581 O   0  0  0  0  0  0  0  0  0  0  0  0
  -16.6346    9.2664  -27.7122 C   0  0  0  0  0  0  0  0  0  0  0  0
  -12.7100   14.2857  -27.7029 N   0  0  0  0  0  0  0  0  0  0  0  0
  -11.9083   15.2551  -28.1328 C   0  0  0  0  0  0  0  0  0  0  0  0
  -14.4055   16.6074  -26.7523 C   0  0  0  0  0  0  0  0  0  0  0  0
  1  2  2  0
  2  3  1  0
  3  4  2  0
  3  5  1  0
  5  6  1  0
  6  7  2  0
  7  8  1  0
  8  9  2  0
  9 10  1  0
 10 11  1  0
 11 12  1  0
 12 13  2  0
 12 14  1  0
 14 15  1  0
 14 16  1  0
 16 17  1  0
 17 18  2  0
 18 19  1  0
 19 20  2  0
 20 21  1  0
 21 22  1  0
 22 23  2  0
 23 24  1  0
 24 25  2  0
 25 26  1  0
 26 27  1  0
 27 28  1  0
 28 29  1  0
 29 30  1  0
 29 31  1  0
 31 32  1  0
 25 33  1  0
 33 34  2  0
 34 35  1  0
 35 36  1  0
 20 37  1  0
 37 38  2  0
 10 39  2  0
 39  6  1  0
 38 11  1  0
 38 17  1  0
 34 22  1  0
 32 26  1  0
M  CHG  1  29   1
M  END
$$$$
CHEMBL2032376_diffdock_9
     RDKit          3D

 39 43  0  0  0  0  0  0  0  0999 V2000
  -20.0634   16.0060  -25.1308 C   0  0  0  0  0  0  0  0  0  0  0  0
  -19.1565   15.9686  -26.0932 C   0  0  0  0  0  0  0  0  0  0  0  0
  -17.7300   15.9913  -25.8320 C   0  0  0  0  0  0  0  0  0  0  0  0
  -17.2436   15.1173  -25.0711 O   0  0  0  0  0  0  0  0  0  0  0  0
  -16.8293   16.9327  -26.3733 N   0  0  0  0  0  0  0  0  0  0  0  0
  -15.4400   17.0044  -26.0707 C   0  0  0  0  0  0  0  0  0  0  0  0
  -14.9767   17.2950  -24.7988 C   0  0  0  0  0  0  0  0  0  0  0  0
  -13.6166   17.3474  -24.5661 C   0  0  0  0  0  0  0  0  0  0  0  0
  -12.7152   17.1139  -25.5841 C   0  0  0  0  0  0  0  0  0  0  0  0
  -13.1508   16.8199  -26.8701 C   0  0  0  0  0  0  0  0  0  0  0  0
  -12.1749   16.5925  -27.8459 N   0  0  0  0  0  0  0  0  0  0  0  0
  -11.2979   17.5847  -28.3600 C   0  0  0  0  0  0  0  0  0  0  0  0
  -11.4011   18.7608  -27.9089 O   0  0  0  0  0  0  0  0  0  0  0  0
  -10.3445   17.2308  -29.3519 N   0  0  0  0  0  0  0  0  0  0  0  0
   -9.4777   18.2911  -29.8293 C   0  0  0  0  0  0  0  0  0  0  0  0
  -10.1892   15.9173  -29.8954 C   0  0  0  0  0  0  0  0  0  0  0  0
  -11.1207   14.9390  -29.3254 C   0  0  0  0  0  0  0  0  0  0  0  0
  -11.0727   13.6146  -29.7722 C   0  0  0  0  0  0  0  0  0  0  0  0
  -11.9329   12.7396  -29.2397 N   0  0  0  0  0  0  0  0  0  0  0  0
  -12.8492   13.0158  -28.3052 C   0  0  0  0  0  0  0  0  0  0  0  0
  -13.7518   12.0840  -27.7565 N   0  0  0  0  0  0  0  0  0  0  0  0
  -14.8470   12.3532  -26.9022 C   0  0  0  0  0  0  0  0  0  0  0  0
  -14.8201   13.2134  -25.8457 C   0  0  0  0  0  0  0  0  0  0  0  0
  -15.9281   13.4354  -25.0431 C   0  0  0  0  0  0  0  0  0  0  0  0
  -17.1303   12.7850  -25.2801 C   0  0  0  0  0  0  0  0  0  0  0  0
  -18.2683   13.0190  -24.4471 N   0  0  0  0  0  0  0  0  0  0  0  0
  -19.5948   12.7662  -25.0160 C   0  0  0  0  0  0  0  0  0  0  0  0
  -20.6806   13.0709  -24.0370 C   0  0  0  0  0  0  0  0  0  0  0  0
  -20.3911   14.2586  -23.2397 N   0  0  0  0  0  4  0  0  0  0  0  0
  -21.5507   14.4653  -22.3883 C   0  0  0  0  0  0  0  0  0  0  0  0
  -19.2792   13.9206  -22.3917 C   0  0  0  0  0  0  0  0  0  0  0  0
  -18.0507   13.4876  -23.1144 C   0  0  0  0  0  0  0  0  0  0  0  0
  -17.1747   11.9144  -26.3419 C   0  0  0  0  0  0  0  0  0  0  0  0
  -16.0703   11.7038  -27.1287 C   0  0  0  0  0  0  0  0  0  0  0  0
  -16.1287   10.8333  -28.1839 O   0  0  0  0  0  0  0  0  0  0  0  0
  -16.4682    9.4833  -27.9477 C   0  0  0  0  0  0  0  0  0  0  0  0
  -12.8597   14.3227  -27.8983 N   0  0  0  0  0  0  0  0  0  0  0  0
  -12.0421   15.2570  -28.3734 C   0  0  0  0  0  0  0  0  0  0  0  0
  -14.5135   16.7755  -27.0688 C   0  0  0  0  0  0  0  0  0  0  0  0
  1  2  2  0
  2  3  1  0
  3  4  2  0
  3  5  1  0
  5  6  1  0
  6  7  2  0
  7  8  1  0
  8  9  2  0
  9 10  1  0
 10 11  1  0
 11 12  1  0
 12 13  2  0
 12 14  1  0
 14 15  1  0
 14 16  1  0
 16 17  1  0
 17 18  2  0
 18 19  1  0
 19 20  2  0
 20 21  1  0
 21 22  1  0
 22 23  2  0
 23 24  1  0
 24 25  2  0
 25 26  1  0
 26 27  1  0
 27 28  1  0
 28 29  1  0
 29 30  1  0
 29 31  1  0
 31 32  1  0
 25 33  1  0
 33 34  2  0
 34 35  1  0
 35 36  1  0
 20 37  1  0
 37 38  2  0
 10 39  2  0
 39  6  1  0
 38 11  1  0
 38 17  1  0
 34 22  1  0
 32 26  1  0
M  CHG  1  29   1
M  END
$$$$
CHEMBL2032376_diffdock_10
     RDKit          3D

 39 43  0  0  0  0  0  0  0  0999 V2000
 -117.7239  197.2193  -12.2992 C   0  0  0  0  0  0  0  0  0  0  0  0
 -116.4693  196.8495  -12.4972 C   0  0  0  0  0  0  0  0  0  0  0  0
 -115.5089  196.7142  -11.4188 C   0  0  0  0  0  0  0  0  0  0  0  0
 -115.0780  197.7555  -10.8626 O   0  0  0  0  0  0  0  0  0  0  0  0
 -115.0112  195.4854  -10.9362 N   0  0  0  0  0  0  0  0  0  0  0  0
 -114.4324  195.2847   -9.6511 C   0  0  0  0  0  0  0  0  0  0  0  0
 -113.9074  196.3283   -8.9080 C   0  0  0  0  0  0  0  0  0  0  0  0
 -113.3620  196.0714   -7.6657 C   0  0  0  0  0  0  0  0  0  0  0  0
 -113.3339  194.7893   -7.1569 C   0  0  0  0  0  0  0  0  0  0  0  0
 -113.8532  193.7227   -7.8796 C   0  0  0  0  0  0  0  0  0  0  0  0
 -113.7900  192.4542   -7.2937 N   0  0  0  0  0  0  0  0  0  0  0  0
 -112.5940  191.7160   -7.0887 C   0  0  0  0  0  0  0  0  0  0  0  0
 -111.5035  192.2355   -7.4610 O   0  0  0  0  0  0  0  0  0  0  0  0
 -112.6576  190.4338   -6.4803 N   0  0  0  0  0  0  0  0  0  0  0  0
 -111.3989  189.7370   -6.2969 C   0  0  0  0  0  0  0  0  0  0  0  0
 -113.8642  189.8024   -6.0439 C   0  0  0  0  0  0  0  0  0  0  0  0
 -115.0627  190.6129   -6.2815 C   0  0  0  0  0  0  0  0  0  0  0  0
 -116.3102  190.1091   -5.8997 C   0  0  0  0  0  0  0  0  0  0  0  0
 -117.3901  190.8648   -6.1276 N   0  0  0  0  0  0  0  0  0  0  0  0
 -117.3897  192.0761   -6.6950 C   0  0  0  0  0  0  0  0  0  0  0  0
 -118.5364  192.8589   -6.9325 N   0  0  0  0  0  0  0  0  0  0  0  0
 -118.5795  194.2113   -7.3459 C   0  0  0  0  0  0  0  0  0  0  0  0
 -117.6109  195.1362   -7.0940 C   0  0  0  0  0  0  0  0  0  0  0  0
 -117.7106  196.4495   -7.5258 C   0  0  0  0  0  0  0  0  0  0  0  0
 -118.8138  196.8895   -8.2427 C   0  0  0  0  0  0  0  0  0  0  0  0
 -118.9092  198.2458   -8.6838 N   0  0  0  0  0  0  0  0  0  0  0  0
 -117.6975  199.0681   -8.6308 C   0  0  0  0  0  0  0  0  0  0  0  0
 -117.9563  200.4604   -9.1052 C   0  0  0  0  0  0  0  0  0  0  0  0
 -119.2552  200.9627   -8.6688 N   0  0  0  0  0  4  0  0  0  0  0  0
 -119.3382  202.3335   -9.1443 C   0  0  0  0  0  0  0  0  0  0  0  0
 -120.2477  200.1939   -9.3714 C   0  0  0  0  0  0  0  0  0  0  0  0
 -120.1747  198.7233   -9.1457 C   0  0  0  0  0  0  0  0  0  0  0  0
 -119.7996  195.9695   -8.5057 C   0  0  0  0  0  0  0  0  0  0  0  0
 -119.6883  194.6721   -8.0724 C   0  0  0  0  0  0  0  0  0  0  0  0
 -120.6785  193.7657   -8.3416 O   0  0  0  0  0  0  0  0  0  0  0  0
 -120.4816  192.8105   -9.3626 C   0  0  0  0  0  0  0  0  0  0  0  0
 -116.1480  192.5284   -7.0518 N   0  0  0  0  0  0  0  0  0  0  0  0
 -115.0237  191.8446   -6.8628 C   0  0  0  0  0  0  0  0  0  0  0  0
 -114.3897  194.0128   -9.1152 C   0  0  0  0  0  0  0  0  0  0  0  0
  1  2  2  0
  2  3  1  0
  3  4  2  0
  3  5  1  0
  5  6  1  0
  6  7  2  0
  7  8  1  0
  8  9  2  0
  9 10  1  0
 10 11  1  0
 11 12  1  0
 12 13  2  0
 12 14  1  0
 14 15  1  0
 14 16  1  0
 16 17  1  0
 17 18  2  0
 18 19  1  0
 19 20  2  0
 20 21  1  0
 21 22  1  0
 22 23  2  0
 23 24  1  0
 24 25  2  0
 25 26  1  0
 26 27  1  0
 27 28  1  0
 28 29  1  0
 29 30  1  0
 29 31  1  0
 31 32  1  0
 25 33  1  0
 33 34  2  0
 34 35  1  0
 35 36  1  0
 20 37  1  0
 37 38  2  0
 10 39  2  0
 39  6  1  0
 38 11  1  0
 38 17  1  0
 34 22  1  0
 32 26  1  0
M  CHG  1  29   1
M  END
$$$$
CHEMBL203645_diffdock_1
     RDKit          3D

 27 29  0  0  0  0  0  0  0  0999 V2000
  -18.8685    9.1839  -23.7943 C   0  0  0  0  0  0  0  0  0  0  0  0
  -17.8953   10.0651  -24.5384 C   0  0  0  0  0  0  0  0  0  0  0  0
  -17.4296    9.4703  -25.8436 C   0  0  0  0  0  0  0  0  0  0  0  0
  -16.4687   10.4413  -26.4272 C   0  0  0  0  0  0  0  0  0  0  0  0
  -15.7094   11.1886  -26.8976 C   0  0  0  0  0  0  0  0  0  0  0  0
  -14.7633   12.0855  -27.4675 C   0  0  0  0  0  0  0  0  0  0  0  0
  -14.9814   13.3587  -27.4140 O   0  0  0  0  0  0  0  0  0  0  0  0
  -13.5342   11.7487  -28.1196 N   0  0  0  0  0  0  0  0  0  0  0  0
  -12.7036   12.8709  -28.5416 C   0  0  0  0  0  0  0  0  0  0  0  0
  -12.9179   14.1590  -28.1821 C   0  0  0  0  0  0  0  0  0  0  0  0
  -11.9675   15.1227  -28.5483 C   0  0  0  0  0  0  0  0  0  0  0  0
  -12.1380   16.4241  -28.1441 C   0  0  0  0  0  0  0  0  0  0  0  0
  -13.2771   16.8194  -27.4317 N   0  0  0  0  0  0  0  0  0  0  0  0
  -13.3284   18.1490  -26.8710 C   0  0  0  0  0  0  0  0  0  0  0  0
  -14.3516   18.4631  -25.9788 C   0  0  0  0  0  0  0  0  0  0  0  0
  -14.4507   19.7075  -25.4094 C   0  0  0  0  0  0  0  0  0  0  0  0
  -13.5213   20.7116  -25.7064 C   0  0  0  0  0  0  0  0  0  0  0  0
  -13.6293   21.9502  -25.1270 F   0  0  0  0  0  0  0  0  0  0  0  0
  -12.5262   20.4012  -26.5771 C   0  0  0  0  0  0  0  0  0  0  0  0
  -11.3035   21.5734  -27.0079 Cl  0  0  0  0  0  0  0  0  0  0  0  0
  -12.4143   19.1260  -27.1704 C   0  0  0  0  0  0  0  0  0  0  0  0
  -11.1504   17.2954  -28.4842 N   0  0  0  0  0  0  0  0  0  0  0  0
  -10.0743   16.9249  -29.1712 C   0  0  0  0  0  0  0  0  0  0  0  0
   -9.9057   15.6341  -29.5740 N   0  0  0  0  0  0  0  0  0  0  0  0
  -10.8526   14.7456  -29.2579 C   0  0  0  0  0  0  0  0  0  0  0  0
  -10.6613   13.4170  -29.6186 C   0  0  0  0  0  0  0  0  0  0  0  0
  -11.5923   12.5432  -29.2446 N   0  0  0  0  0  0  0  0  0  0  0  0
  1  2  1  0
  2  3  1  0
  3  4  1  0
  4  5  3  0
  5  6  1  0
  6  7  2  0
  6  8  1  0
  8  9  1  0
  9 10  2  0
 10 11  1  0
 11 12  2  0
 12 13  1  0
 13 14  1  0
 14 15  2  0
 15 16  1  0
 16 17  2  0
 17 18  1  0
 17 19  1  0
 19 20  1  0
 19 21  2  0
 12 22  1  0
 22 23  2  0
 23 24  1  0
 24 25  2  0
 25 26  1  0
 26 27  2  0
 27  9  1  0
 25 11  1  0
 21 14  1  0
M  END
$$$$
CHEMBL203645_diffdock_2
     RDKit          3D

 27 29  0  0  0  0  0  0  0  0999 V2000
  -18.7666    9.3981  -23.6769 C   0  0  0  0  0  0  0  0  0  0  0  0
  -17.7884   10.2152  -24.4846 C   0  0  0  0  0  0  0  0  0  0  0  0
  -16.9147    9.3797  -25.3862 C   0  0  0  0  0  0  0  0  0  0  0  0
  -15.9900   10.3234  -26.0652 C   0  0  0  0  0  0  0  0  0  0  0  0
  -15.2772   11.0637  -26.6133 C   0  0  0  0  0  0  0  0  0  0  0  0
  -14.4197   11.9871  -27.2739 C   0  0  0  0  0  0  0  0  0  0  0  0
  -14.5996   13.2559  -27.1039 O   0  0  0  0  0  0  0  0  0  0  0  0
  -13.3222   11.6821  -28.1410 N   0  0  0  0  0  0  0  0  0  0  0  0
  -12.4718   12.8053  -28.5184 C   0  0  0  0  0  0  0  0  0  0  0  0
  -12.6470   14.0768  -28.0859 C   0  0  0  0  0  0  0  0  0  0  0  0
  -11.6797   15.0358  -28.4186 C   0  0  0  0  0  0  0  0  0  0  0  0
  -11.8100   16.3171  -27.9415 C   0  0  0  0  0  0  0  0  0  0  0  0
  -12.9254   16.7003  -27.1862 N   0  0  0  0  0  0  0  0  0  0  0  0
  -13.1330   18.1004  -26.9011 C   0  0  0  0  0  0  0  0  0  0  0  0
  -13.8728   18.4543  -25.7745 C   0  0  0  0  0  0  0  0  0  0  0  0
  -14.1000   19.7676  -25.4485 C   0  0  0  0  0  0  0  0  0  0  0  0
  -13.5932   20.8046  -26.2409 C   0  0  0  0  0  0  0  0  0  0  0  0
  -13.8240   22.1134  -25.9013 F   0  0  0  0  0  0  0  0  0  0  0  0
  -12.8734   20.4550  -27.3383 C   0  0  0  0  0  0  0  0  0  0  0  0
  -12.1816   21.6674  -28.3898 Cl  0  0  0  0  0  0  0  0  0  0  0  0
  -12.6341   19.1085  -27.6852 C   0  0  0  0  0  0  0  0  0  0  0  0
  -10.8075   17.1816  -28.2539 N   0  0  0  0  0  0  0  0  0  0  0  0
   -9.7540   16.8232  -28.9812 C   0  0  0  0  0  0  0  0  0  0  0  0
   -9.6253   15.5526  -29.4563 N   0  0  0  0  0  0  0  0  0  0  0  0
  -10.5881   14.6712  -29.1696 C   0  0  0  0  0  0  0  0  0  0  0  0
  -10.4369   13.3599  -29.6051 C   0  0  0  0  0  0  0  0  0  0  0  0
  -11.3823   12.4897  -29.2602 N   0  0  0  0  0  0  0  0  0  0  0  0
  1  2  1  0
  2  3  1  0
  3  4  1  0
  4  5  3  0
  5  6  1  0
  6  7  2  0
  6  8  1  0
  8  9  1  0
  9 10  2  0
 10 11  1  0
 11 12  2  0
 12 13  1  0
 13 14  1  0
 14 15  2  0
 15 16  1  0
 16 17  2  0
 17 18  1  0
 17 19  1  0
 19 20  1  0
 19 21  2  0
 12 22  1  0
 22 23  2  0
 23 24  1  0
 24 25  2  0
 25 26  1  0
 26 27  2  0
 27  9  1  0
 25 11  1  0
 21 14  1  0
M  END
$$$$
CHEMBL203645_diffdock_3
     RDKit          3D

 27 29  0  0  0  0  0  0  0  0999 V2000
  -19.2012    9.4042  -23.6805 C   0  0  0  0  0  0  0  0  0  0  0  0
  -18.2454   10.2356  -24.5006 C   0  0  0  0  0  0  0  0  0  0  0  0
  -17.6580    9.4882  -25.6713 C   0  0  0  0  0  0  0  0  0  0  0  0
  -16.7345   10.4330  -26.3505 C   0  0  0  0  0  0  0  0  0  0  0  0
  -16.0082   11.1605  -26.8978 C   0  0  0  0  0  0  0  0  0  0  0  0
  -15.1104   12.0300  -27.5779 C   0  0  0  0  0  0  0  0  0  0  0  0
  -15.1767   13.3038  -27.3676 O   0  0  0  0  0  0  0  0  0  0  0  0
  -14.0852   11.6621  -28.5068 N   0  0  0  0  0  0  0  0  0  0  0  0
  -13.1215   12.7037  -28.8440 C   0  0  0  0  0  0  0  0  0  0  0  0
  -13.2263   13.9973  -28.4566 C   0  0  0  0  0  0  0  0  0  0  0  0
  -12.1630   14.8675  -28.7363 C   0  0  0  0  0  0  0  0  0  0  0  0
  -12.2256   16.1687  -28.3012 C   0  0  0  0  0  0  0  0  0  0  0  0
  -13.3602   16.6602  -27.6436 N   0  0  0  0  0  0  0  0  0  0  0  0
  -13.4393   18.0690  -27.3374 C   0  0  0  0  0  0  0  0  0  0  0  0
  -13.9858   18.4620  -26.1174 C   0  0  0  0  0  0  0  0  0  0  0  0
  -14.0836   19.7850  -25.7675 C   0  0  0  0  0  0  0  0  0  0  0  0
  -13.6347   20.7931  -26.6292 C   0  0  0  0  0  0  0  0  0  0  0  0
  -13.7344   22.1119  -26.2655 F   0  0  0  0  0  0  0  0  0  0  0  0
  -13.1035   20.4055  -27.8176 C   0  0  0  0  0  0  0  0  0  0  0  0
  -12.4986   21.5786  -28.9632 Cl  0  0  0  0  0  0  0  0  0  0  0  0
  -12.9988   19.0485  -28.1897 C   0  0  0  0  0  0  0  0  0  0  0  0
  -11.1364   16.9425  -28.5557 N   0  0  0  0  0  0  0  0  0  0  0  0
  -10.0634   16.4815  -29.1908 C   0  0  0  0  0  0  0  0  0  0  0  0
  -10.0017   15.1912  -29.6242 N   0  0  0  0  0  0  0  0  0  0  0  0
  -11.0508   14.3965  -29.3919 C   0  0  0  0  0  0  0  0  0  0  0  0
  -10.9730   13.0651  -29.7832 C   0  0  0  0  0  0  0  0  0  0  0  0
  -12.0083   12.2820  -29.4917 N   0  0  0  0  0  0  0  0  0  0  0  0
  1  2  1  0
  2  3  1  0
  3  4  1  0
  4  5  3  0
  5  6  1  0
  6  7  2  0
  6  8  1  0
  8  9  1  0
  9 10  2  0
 10 11  1  0
 11 12  2  0
 12 13  1  0
 13 14  1  0
 14 15  2  0
 15 16  1  0
 16 17  2  0
 17 18  1  0
 17 19  1  0
 19 20  1  0
 19 21  2  0
 12 22  1  0
 22 23  2  0
 23 24  1  0
 24 25  2  0
 25 26  1  0
 26 27  2  0
 27  9  1  0
 25 11  1  0
 21 14  1  0
M  END
$$$$
CHEMBL203645_diffdock_4
     RDKit          3D

 27 29  0  0  0  0  0  0  0  0999 V2000
  -18.7765    7.6625  -25.7313 C   0  0  0  0  0  0  0  0  0  0  0  0
  -17.7509    8.6197  -26.2873 C   0  0  0  0  0  0  0  0  0  0  0  0
  -17.0480    9.4250  -25.2234 C   0  0  0  0  0  0  0  0  0  0  0  0
  -16.0822   10.3031  -25.9325 C   0  0  0  0  0  0  0  0  0  0  0  0
  -15.3116   10.9879  -26.4742 C   0  0  0  0  0  0  0  0  0  0  0  0
  -14.3790   11.8442  -27.1236 C   0  0  0  0  0  0  0  0  0  0  0  0
  -14.4696   13.1235  -26.9606 O   0  0  0  0  0  0  0  0  0  0  0  0
  -13.2926   11.4571  -27.9715 N   0  0  0  0  0  0  0  0  0  0  0  0
  -12.4157   12.5323  -28.4215 C   0  0  0  0  0  0  0  0  0  0  0  0
  -12.5557   13.8322  -28.0681 C   0  0  0  0  0  0  0  0  0  0  0  0
  -11.5660   14.7433  -28.4637 C   0  0  0  0  0  0  0  0  0  0  0  0
  -11.6606   16.0546  -28.0666 C   0  0  0  0  0  0  0  0  0  0  0  0
  -12.7613   16.5128  -27.3318 N   0  0  0  0  0  0  0  0  0  0  0  0
  -12.8798   17.9241  -27.0510 C   0  0  0  0  0  0  0  0  0  0  0  0
  -13.9214   18.3619  -26.2354 C   0  0  0  0  0  0  0  0  0  0  0  0
  -14.0835   19.6893  -25.9286 C   0  0  0  0  0  0  0  0  0  0  0  0
  -13.2026   20.6567  -26.4269 C   0  0  0  0  0  0  0  0  0  0  0  0
  -13.3734   21.9800  -26.1090 F   0  0  0  0  0  0  0  0  0  0  0  0
  -12.1894   20.2255  -27.2220 C   0  0  0  0  0  0  0  0  0  0  0  0
  -11.0229   21.3444  -27.8867 Cl  0  0  0  0  0  0  0  0  0  0  0  0
  -12.0128   18.8638  -27.5461 C   0  0  0  0  0  0  0  0  0  0  0  0
  -10.6379   16.8717  -28.4362 N   0  0  0  0  0  0  0  0  0  0  0  0
   -9.5983   16.4417  -29.1443 C   0  0  0  0  0  0  0  0  0  0  0  0
   -9.5051   15.1412  -29.5401 N   0  0  0  0  0  0  0  0  0  0  0  0
  -10.4885   14.3046  -29.1952 C   0  0  0  0  0  0  0  0  0  0  0  0
  -10.3736   12.9654  -29.5490 C   0  0  0  0  0  0  0  0  0  0  0  0
  -11.3391   12.1430  -29.1468 N   0  0  0  0  0  0  0  0  0  0  0  0
  1  2  1  0
  2  3  1  0
  3  4  1  0
  4  5  3  0
  5  6  1  0
  6  7  2  0
  6  8  1  0
  8  9  1  0
  9 10  2  0
 10 11  1  0
 11 12  2  0
 12 13  1  0
 13 14  1  0
 14 15  2  0
 15 16  1  0
 16 17  2  0
 17 18  1  0
 17 19  1  0
 19 20  1  0
 19 21  2  0
 12 22  1  0
 22 23  2  0
 23 24  1  0
 24 25  2  0
 25 26  1  0
 26 27  2  0
 27  9  1  0
 25 11  1  0
 21 14  1  0
M  END
$$$$
CHEMBL203645_diffdock_5
     RDKit          3D

 27 29  0  0  0  0  0  0  0  0999 V2000
   -3.7129   18.4030  -31.3834 C   0  0  0  0  0  0  0  0  0  0  0  0
   -5.0556   17.8352  -30.9936 C   0  0  0  0  0  0  0  0  0  0  0  0
   -5.2885   16.4405  -31.5179 C   0  0  0  0  0  0  0  0  0  0  0  0
   -6.6219   16.0212  -31.0148 C   0  0  0  0  0  0  0  0  0  0  0  0
   -7.6593   15.6898  -30.6023 C   0  0  0  0  0  0  0  0  0  0  0  0
   -8.9216   15.2615  -30.1047 C   0  0  0  0  0  0  0  0  0  0  0  0
   -9.7268   16.1278  -29.5828 O   0  0  0  0  0  0  0  0  0  0  0  0
   -9.4493   13.9308  -30.1122 N   0  0  0  0  0  0  0  0  0  0  0  0
  -10.6000   13.6924  -29.2483 C   0  0  0  0  0  0  0  0  0  0  0  0
  -11.2917   14.6659  -28.6092 C   0  0  0  0  0  0  0  0  0  0  0  0
  -12.4583   14.3127  -27.9162 C   0  0  0  0  0  0  0  0  0  0  0  0
  -13.2043   15.2937  -27.3101 C   0  0  0  0  0  0  0  0  0  0  0  0
  -12.7858   16.6301  -27.3133 N   0  0  0  0  0  0  0  0  0  0  0  0
  -13.6382   17.6345  -26.7222 C   0  0  0  0  0  0  0  0  0  0  0  0
  -13.5468   18.9474  -27.1797 C   0  0  0  0  0  0  0  0  0  0  0  0
  -14.3333   19.9448  -26.6608 C   0  0  0  0  0  0  0  0  0  0  0  0
  -15.2613   19.6766  -25.6473 C   0  0  0  0  0  0  0  0  0  0  0  0
  -16.0446   20.6820  -25.1401 F   0  0  0  0  0  0  0  0  0  0  0  0
  -15.3463   18.3957  -25.2039 C   0  0  0  0  0  0  0  0  0  0  0  0
  -16.4803   17.9454  -23.9526 Cl  0  0  0  0  0  0  0  0  0  0  0  0
  -14.5422   17.3616  -25.7281 C   0  0  0  0  0  0  0  0  0  0  0  0
  -14.3535   14.8898  -26.7049 N   0  0  0  0  0  0  0  0  0  0  0  0
  -14.7465   13.6199  -26.6898 C   0  0  0  0  0  0  0  0  0  0  0  0
  -14.0056   12.6461  -27.2894 N   0  0  0  0  0  0  0  0  0  0  0  0
  -12.8699   13.0017  -27.8976 C   0  0  0  0  0  0  0  0  0  0  0  0
  -12.1371   12.0223  -28.5575 C   0  0  0  0  0  0  0  0  0  0  0  0
  -11.0395   12.4112  -29.2011 N   0  0  0  0  0  0  0  0  0  0  0  0
  1  2  1  0
  2  3  1  0
  3  4  1  0
  4  5  3  0
  5  6  1  0
  6  7  2  0
  6  8  1  0
  8  9  1  0
  9 10  2  0
 10 11  1  0
 11 12  2  0
 12 13  1  0
 13 14  1  0
 14 15  2  0
 15 16  1  0
 16 17  2  0
 17 18  1  0
 17 19  1  0
 19 20  1  0
 19 21  2  0
 12 22  1  0
 22 23  2  0
 23 24  1  0
 24 25  2  0
 25 26  1  0
 26 27  2  0
 27  9  1  0
 25 11  1  0
 21 14  1  0
M  END
$$$$
CHEMBL203645_diffdock_6
     RDKit          3D

 27 29  0  0  0  0  0  0  0  0999 V2000
  -18.0816   15.8171  -20.0341 C   0  0  0  0  0  0  0  0  0  0  0  0
  -17.2539   15.6625  -21.2864 C   0  0  0  0  0  0  0  0  0  0  0  0
  -17.2773   16.8833  -22.1715 C   0  0  0  0  0  0  0  0  0  0  0  0
  -16.5428   16.5171  -23.4097 C   0  0  0  0  0  0  0  0  0  0  0  0
  -15.9840   16.2234  -24.3883 C   0  0  0  0  0  0  0  0  0  0  0  0
  -15.3157   15.8802  -25.5967 C   0  0  0  0  0  0  0  0  0  0  0  0
  -14.5114   16.7323  -26.1428 O   0  0  0  0  0  0  0  0  0  0  0  0
  -15.4148   14.6501  -26.3219 N   0  0  0  0  0  0  0  0  0  0  0  0
  -14.3829   14.4119  -27.3248 C   0  0  0  0  0  0  0  0  0  0  0  0
  -13.5385   15.3613  -27.7941 C   0  0  0  0  0  0  0  0  0  0  0  0
  -12.5060   14.9701  -28.6584 C   0  0  0  0  0  0  0  0  0  0  0  0
  -11.6053   15.9084  -29.0993 C   0  0  0  0  0  0  0  0  0  0  0  0
  -11.7387   17.2597  -28.7566 N   0  0  0  0  0  0  0  0  0  0  0  0
  -10.7896   18.2138  -29.2796 C   0  0  0  0  0  0  0  0  0  0  0  0
  -11.0471   19.5740  -29.1207 C   0  0  0  0  0  0  0  0  0  0  0  0
  -10.1810   20.5283  -29.5916 C   0  0  0  0  0  0  0  0  0  0  0  0
   -9.0006   20.1668  -30.2521 C   0  0  0  0  0  0  0  0  0  0  0  0
   -8.1411   21.1308  -30.7142 F   0  0  0  0  0  0  0  0  0  0  0  0
   -8.7541   18.8400  -30.4053 C   0  0  0  0  0  0  0  0  0  0  0  0
   -7.3041   18.2757  -31.2012 Cl  0  0  0  0  0  0  0  0  0  0  0  0
   -9.6374   17.8491  -29.9271 C   0  0  0  0  0  0  0  0  0  0  0  0
  -10.5959   15.4512  -29.8881 N   0  0  0  0  0  0  0  0  0  0  0  0
  -10.4745   14.1709  -30.2249 C   0  0  0  0  0  0  0  0  0  0  0  0
  -11.3690   13.2400  -29.7892 N   0  0  0  0  0  0  0  0  0  0  0  0
  -12.3750   13.6479  -29.0096 C   0  0  0  0  0  0  0  0  0  0  0  0
  -13.2598   12.6957  -28.5174 C   0  0  0  0  0  0  0  0  0  0  0  0
  -14.2198   13.1198  -27.6998 N   0  0  0  0  0  0  0  0  0  0  0  0
  1  2  1  0
  2  3  1  0
  3  4  1  0
  4  5  3  0
  5  6  1  0
  6  7  2  0
  6  8  1  0
  8  9  1  0
  9 10  2  0
 10 11  1  0
 11 12  2  0
 12 13  1  0
 13 14  1  0
 14 15  2  0
 15 16  1  0
 16 17  2  0
 17 18  1  0
 17 19  1  0
 19 20  1  0
 19 21  2  0
 12 22  1  0
 22 23  2  0
 23 24  1  0
 24 25  2  0
 25 26  1  0
 26 27  2  0
 27  9  1  0
 25 11  1  0
 21 14  1  0
M  END
$$$$
CHEMBL203645_diffdock_7
     RDKit          3D

 27 29  0  0  0  0  0  0  0  0999 V2000
  -20.1844   17.0997  -21.3368 C   0  0  0  0  0  0  0  0  0  0  0  0
  -19.0973   16.6718  -22.2918 C   0  0  0  0  0  0  0  0  0  0  0  0
  -18.0229   17.7137  -22.4783 C   0  0  0  0  0  0  0  0  0  0  0  0
  -17.0385   17.1348  -23.4284 C   0  0  0  0  0  0  0  0  0  0  0  0
  -16.2562   16.6742  -24.1579 C   0  0  0  0  0  0  0  0  0  0  0  0
  -15.3103   16.1246  -25.0677 C   0  0  0  0  0  0  0  0  0  0  0  0
  -14.6259   16.9149  -25.8282 O   0  0  0  0  0  0  0  0  0  0  0  0
  -14.9938   14.7416  -25.2576 N   0  0  0  0  0  0  0  0  0  0  0  0
  -14.0747   14.4380  -26.3487 C   0  0  0  0  0  0  0  0  0  0  0  0
  -13.3486   15.3651  -27.0177 C   0  0  0  0  0  0  0  0  0  0  0  0
  -12.4038   14.9254  -27.9558 C   0  0  0  0  0  0  0  0  0  0  0  0
  -11.6178   15.8474  -28.6027 C   0  0  0  0  0  0  0  0  0  0  0  0
  -11.7892   17.2215  -28.3932 N   0  0  0  0  0  0  0  0  0  0  0  0
  -11.0543   18.1541  -29.2148 C   0  0  0  0  0  0  0  0  0  0  0  0
  -10.5260   19.2996  -28.6230 C   0  0  0  0  0  0  0  0  0  0  0  0
   -9.8146   20.2203  -29.3501 C   0  0  0  0  0  0  0  0  0  0  0  0
   -9.5928   20.0400  -30.7207 C   0  0  0  0  0  0  0  0  0  0  0  0
   -8.8762   20.9660  -31.4352 F   0  0  0  0  0  0  0  0  0  0  0  0
  -10.1103   18.9225  -31.2934 C   0  0  0  0  0  0  0  0  0  0  0  0
   -9.8817   18.5892  -32.9938 Cl  0  0  0  0  0  0  0  0  0  0  0  0
  -10.8448   17.9691  -30.5571 C   0  0  0  0  0  0  0  0  0  0  0  0
  -10.6831   15.3497  -29.4563 N   0  0  0  0  0  0  0  0  0  0  0  0
  -10.5271   14.0463  -29.6660 C   0  0  0  0  0  0  0  0  0  0  0  0
  -11.3079   13.1314  -29.0259 N   0  0  0  0  0  0  0  0  0  0  0  0
  -12.2374   13.5792  -28.1765 C   0  0  0  0  0  0  0  0  0  0  0  0
  -13.0008   12.6500  -27.4796 C   0  0  0  0  0  0  0  0  0  0  0  0
  -13.8813   13.1203  -26.6000 N   0  0  0  0  0  0  0  0  0  0  0  0
  1  2  1  0
  2  3  1  0
  3  4  1  0
  4  5  3  0
  5  6  1  0
  6  7  2  0
  6  8  1  0
  8  9  1  0
  9 10  2  0
 10 11  1  0
 11 12  2  0
 12 13  1  0
 13 14  1  0
 14 15  2  0
 15 16  1  0
 16 17  2  0
 17 18  1  0
 17 19  1  0
 19 20  1  0
 19 21  2  0
 12 22  1  0
 22 23  2  0
 23 24  1  0
 24 25  2  0
 25 26  1  0
 26 27  2  0
 27  9  1  0
 25 11  1  0
 21 14  1  0
M  END
$$$$
CHEMBL203645_diffdock_8
     RDKit          3D

 27 29  0  0  0  0  0  0  0  0999 V2000
  -17.0265    7.5532  -24.4073 C   0  0  0  0  0  0  0  0  0  0  0  0
  -16.2479    8.6018  -25.1632 C   0  0  0  0  0  0  0  0  0  0  0  0
  -16.0423    9.8732  -24.3786 C   0  0  0  0  0  0  0  0  0  0  0  0
  -15.2465   10.7777  -25.2477 C   0  0  0  0  0  0  0  0  0  0  0  0
  -14.6088   11.4880  -25.9148 C   0  0  0  0  0  0  0  0  0  0  0  0
  -13.8109   12.3538  -26.7137 C   0  0  0  0  0  0  0  0  0  0  0  0
  -13.8520   13.6291  -26.5056 O   0  0  0  0  0  0  0  0  0  0  0  0
  -12.9163   11.9806  -27.7671 N   0  0  0  0  0  0  0  0  0  0  0  0
  -12.0490   13.0370  -28.2762 C   0  0  0  0  0  0  0  0  0  0  0  0
  -12.2021   14.3535  -27.9974 C   0  0  0  0  0  0  0  0  0  0  0  0
  -11.2205   15.2502  -28.4427 C   0  0  0  0  0  0  0  0  0  0  0  0
  -11.3284   16.5810  -28.1208 C   0  0  0  0  0  0  0  0  0  0  0  0
  -12.4349   17.0695  -27.4148 N   0  0  0  0  0  0  0  0  0  0  0  0
  -12.5526   18.4908  -27.1897 C   0  0  0  0  0  0  0  0  0  0  0  0
  -12.9294   18.9421  -25.9263 C   0  0  0  0  0  0  0  0  0  0  0  0
  -13.0536   20.2802  -25.6497 C   0  0  0  0  0  0  0  0  0  0  0  0
  -12.8044   21.2452  -26.6330 C   0  0  0  0  0  0  0  0  0  0  0  0
  -12.9281   22.5800  -26.3421 F   0  0  0  0  0  0  0  0  0  0  0  0
  -12.4383   20.8007  -27.8630 C   0  0  0  0  0  0  0  0  0  0  0  0
  -12.0888   21.9177  -29.1610 Cl  0  0  0  0  0  0  0  0  0  0  0  0
  -12.3085   19.4277  -28.1605 C   0  0  0  0  0  0  0  0  0  0  0  0
  -10.3129   17.3857  -28.5348 N   0  0  0  0  0  0  0  0  0  0  0  0
   -9.2678   16.9263  -29.2158 C   0  0  0  0  0  0  0  0  0  0  0  0
   -9.1613   15.6063  -29.5370 N   0  0  0  0  0  0  0  0  0  0  0  0
  -10.1373   14.7811  -29.1466 C   0  0  0  0  0  0  0  0  0  0  0  0
  -10.0089   13.4252  -29.4236 C   0  0  0  0  0  0  0  0  0  0  0  0
  -10.9672   12.6177  -28.9767 N   0  0  0  0  0  0  0  0  0  0  0  0
  1  2  1  0
  2  3  1  0
  3  4  1  0
  4  5  3  0
  5  6  1  0
  6  7  2  0
  6  8  1  0
  8  9  1  0
  9 10  2  0
 10 11  1  0
 11 12  2  0
 12 13  1  0
 13 14  1  0
 14 15  2  0
 15 16  1  0
 16 17  2  0
 17 18  1  0
 17 19  1  0
 19 20  1  0
 19 21  2  0
 12 22  1  0
 22 23  2  0
 23 24  1  0
 24 25  2  0
 25 26  1  0
 26 27  2  0
 27  9  1  0
 25 11  1  0
 21 14  1  0
M  END
$$$$
CHEMBL203645_diffdock_9
     RDKit          3D

 27 29  0  0  0  0  0  0  0  0999 V2000
  -18.8119   13.5249  -21.3214 C   0  0  0  0  0  0  0  0  0  0  0  0
  -17.9636   14.3613  -22.2476 C   0  0  0  0  0  0  0  0  0  0  0  0
  -18.6231   14.6359  -23.5757 C   0  0  0  0  0  0  0  0  0  0  0  0
  -17.5507   14.5553  -24.6005 C   0  0  0  0  0  0  0  0  0  0  0  0
  -16.6971   14.4868  -25.3898 C   0  0  0  0  0  0  0  0  0  0  0  0
  -15.6534   14.4279  -26.3551 C   0  0  0  0  0  0  0  0  0  0  0  0
  -15.1565   15.5260  -26.8224 O   0  0  0  0  0  0  0  0  0  0  0  0
  -15.0434   13.2533  -26.9005 N   0  0  0  0  0  0  0  0  0  0  0  0
  -13.8870   13.4723  -27.7619 C   0  0  0  0  0  0  0  0  0  0  0  0
  -13.2278   14.6503  -27.8728 C   0  0  0  0  0  0  0  0  0  0  0  0
  -12.0515   14.6894  -28.6350 C   0  0  0  0  0  0  0  0  0  0  0  0
  -11.3382   15.8604  -28.7125 C   0  0  0  0  0  0  0  0  0  0  0  0
  -11.7993   17.0330  -28.1011 N   0  0  0  0  0  0  0  0  0  0  0  0
  -11.0801   18.2665  -28.3157 C   0  0  0  0  0  0  0  0  0  0  0  0
  -11.3295   19.3456  -27.4702 C   0  0  0  0  0  0  0  0  0  0  0  0
  -10.6744   20.5417  -27.6206 C   0  0  0  0  0  0  0  0  0  0  0  0
   -9.7263   20.7212  -28.6350 C   0  0  0  0  0  0  0  0  0  0  0  0
   -9.0753   21.9208  -28.7719 F   0  0  0  0  0  0  0  0  0  0  0  0
   -9.4870   19.6669  -29.4572 C   0  0  0  0  0  0  0  0  0  0  0  0
   -8.3134   19.7749  -30.7477 Cl  0  0  0  0  0  0  0  0  0  0  0  0
  -10.1550   18.4325  -29.3139 C   0  0  0  0  0  0  0  0  0  0  0  0
  -10.1775   15.8136  -29.4202 N   0  0  0  0  0  0  0  0  0  0  0  0
   -9.7441   14.7048  -30.0118 C   0  0  0  0  0  0  0  0  0  0  0  0
  -10.4526   13.5433  -29.9367 N   0  0  0  0  0  0  0  0  0  0  0  0
  -11.5981   13.5462  -29.2484 C   0  0  0  0  0  0  0  0  0  0  0  0
  -12.2983   12.3522  -29.1221 C   0  0  0  0  0  0  0  0  0  0  0  0
  -13.4067   12.3697  -28.3866 N   0  0  0  0  0  0  0  0  0  0  0  0
  1  2  1  0
  2  3  1  0
  3  4  1  0
  4  5  3  0
  5  6  1  0
  6  7  2  0
  6  8  1  0
  8  9  1  0
  9 10  2  0
 10 11  1  0
 11 12  2  0
 12 13  1  0
 13 14  1  0
 14 15  2  0
 15 16  1  0
 16 17  2  0
 17 18  1  0
 17 19  1  0
 19 20  1  0
 19 21  2  0
 12 22  1  0
 22 23  2  0
 23 24  1  0
 24 25  2  0
 25 26  1  0
 26 27  2  0
 27  9  1  0
 25 11  1  0
 21 14  1  0
M  END
$$$$
CHEMBL203645_diffdock_10
     RDKit          3D

 27 29  0  0  0  0  0  0  0  0999 V2000
  -43.0675  -99.6693   -2.6986 C   0  0  0  0  0  0  0  0  0  0  0  0
  -42.3019  -98.5992   -1.9597 C   0  0  0  0  0  0  0  0  0  0  0  0
  -42.5921  -98.5721   -0.4800 C   0  0  0  0  0  0  0  0  0  0  0  0
  -42.9638  -97.1717   -0.1517 C   0  0  0  0  0  0  0  0  0  0  0  0
  -43.2494  -96.0770    0.1244 C   0  0  0  0  0  0  0  0  0  0  0  0
  -43.6113  -94.7480    0.4811 C   0  0  0  0  0  0  0  0  0  0  0  0
  -44.6926  -94.2312   -0.0037 O   0  0  0  0  0  0  0  0  0  0  0  0
  -42.9044  -93.8634    1.3569 N   0  0  0  0  0  0  0  0  0  0  0  0
  -43.6483  -92.7027    1.8331 C   0  0  0  0  0  0  0  0  0  0  0  0
  -44.8737  -92.3419    1.3829 C   0  0  0  0  0  0  0  0  0  0  0  0
  -45.5347  -91.2816    2.0193 C   0  0  0  0  0  0  0  0  0  0  0  0
  -46.8014  -90.9382    1.6147 C   0  0  0  0  0  0  0  0  0  0  0  0
  -47.4178  -91.5819    0.5344 N   0  0  0  0  0  0  0  0  0  0  0  0
  -48.7307  -91.1506    0.1161 C   0  0  0  0  0  0  0  0  0  0  0  0
  -49.4642  -91.9667   -0.7428 C   0  0  0  0  0  0  0  0  0  0  0  0
  -50.7188  -91.6136   -1.1714 C   0  0  0  0  0  0  0  0  0  0  0  0
  -51.3100  -90.4136   -0.7581 C   0  0  0  0  0  0  0  0  0  0  0  0
  -52.5668  -90.0744   -1.1907 F   0  0  0  0  0  0  0  0  0  0  0  0
  -50.5911  -89.6210    0.0782 C   0  0  0  0  0  0  0  0  0  0  0  0
  -51.2374  -88.1081    0.6683 Cl  0  0  0  0  0  0  0  0  0  0  0  0
  -49.2996  -89.9720    0.5249 C   0  0  0  0  0  0  0  0  0  0  0  0
  -47.4071  -89.9397    2.3120 N   0  0  0  0  0  0  0  0  0  0  0  0
  -46.8191  -89.3189    3.3299 C   0  0  0  0  0  0  0  0  0  0  0  0
  -45.5616  -89.6580    3.7303 N   0  0  0  0  0  0  0  0  0  0  0  0
  -44.9322  -90.6364    3.0725 C   0  0  0  0  0  0  0  0  0  0  0  0
  -43.6712  -91.0242    3.5098 C   0  0  0  0  0  0  0  0  0  0  0  0
  -43.0890  -92.0366    2.8726 N   0  0  0  0  0  0  0  0  0  0  0  0
  1  2  1  0
  2  3  1  0
  3  4  1  0
  4  5  3  0
  5  6  1  0
  6  7  2  0
  6  8  1  0
  8  9  1  0
  9 10  2  0
 10 11  1  0
 11 12  2  0
 12 13  1  0
 13 14  1  0
 14 15  2  0
 15 16  1  0
 16 17  2  0
 17 18  1  0
 17 19  1  0
 19 20  1  0
 19 21  2  0
 12 22  1  0
 22 23  2  0
 23 24  1  0
 24 25  2  0
 25 26  1  0
 26 27  2  0
 27  9  1  0
 25 11  1  0
 21 14  1  0
M  END
$$$$
CHEMBL461967_diffdock_1
     RDKit          3D

 32 35  0  0  0  0  0  0  0  0999 V2000
  -15.7554   11.3515  -26.7263 C   0  0  0  0  0  0  0  0  0  0  0  0
  -15.7441   12.7191  -26.4540 O   0  0  0  0  0  0  0  0  0  0  0  0
  -14.7401   13.5624  -26.9357 C   0  0  0  0  0  0  0  0  0  0  0  0
  -13.7100   12.9754  -27.6830 C   0  0  0  0  0  0  0  0  0  0  0  0
  -12.6793   13.7093  -28.2119 C   0  0  0  0  0  0  0  0  0  0  0  0
  -11.6813   13.1673  -28.9323 N   0  0  0  0  0  0  0  0  0  0  0  0
  -10.6620   13.8661  -29.4612 C   0  0  0  0  0  0  0  0  0  0  0  0
  -10.6631   15.1934  -29.2414 N   0  0  0  0  0  0  0  0  0  0  0  0
  -11.6412   15.7927  -28.5240 C   0  0  0  0  0  0  0  0  0  0  0  0
  -11.6350   17.2009  -28.3034 N   0  0  0  0  0  0  0  0  0  0  0  0
  -10.7982   18.0149  -29.0995 C   0  0  0  0  0  0  0  0  0  0  0  0
  -10.3943   19.2295  -28.6208 C   0  0  0  0  0  0  0  0  0  0  0  0
   -9.5785   19.9929  -29.4333 C   0  0  0  0  0  0  0  0  0  0  0  0
   -9.1844   19.5462  -30.6842 C   0  0  0  0  0  0  0  0  0  0  0  0
   -8.3906   20.3203  -31.4419 F   0  0  0  0  0  0  0  0  0  0  0  0
   -9.5953   18.3188  -31.1625 C   0  0  0  0  0  0  0  0  0  0  0  0
   -9.1283   17.7025  -32.7404 Cl  0  0  0  0  0  0  0  0  0  0  0  0
  -10.4092   17.5659  -30.3425 C   0  0  0  0  0  0  0  0  0  0  0  0
  -12.6858   15.0676  -27.9831 C   0  0  0  0  0  0  0  0  0  0  0  0
  -13.6936   15.6479  -27.2495 C   0  0  0  0  0  0  0  0  0  0  0  0
  -14.7580   14.9151  -26.6975 C   0  0  0  0  0  0  0  0  0  0  0  0
  -15.7652   15.6000  -25.8619 C   0  0  0  0  0  0  0  0  0  0  0  0
  -15.4167   15.9303  -24.5341 N   0  0  0  0  0  0  0  0  0  0  0  0
  -15.2146   17.1841  -23.9229 C   0  0  0  0  0  0  0  0  0  0  0  0
  -14.1740   17.8164  -24.1603 O   0  0  0  0  0  0  0  0  0  0  0  0
  -16.2039   17.7961  -22.9928 C   0  0  1  0  0  0  0  0  0  0  0  0
  -15.7701   17.4081  -21.5878 C   0  0  0  0  0  0  0  0  0  0  0  0
  -14.3740   17.9194  -21.3122 C   0  0  0  0  0  0  0  0  0  0  0  0
  -14.1714   19.3510  -21.6603 C   0  0  0  0  0  0  0  0  0  0  0  0
  -14.9855   19.8874  -22.7816 C   0  0  0  0  0  0  0  0  0  0  0  0
  -16.2170   19.2177  -23.0343 N   0  0  1  0  0  4  0  0  0  0  0  0
  -16.8228   19.7259  -24.2469 C   0  0  0  0  0  0  0  0  0  0  0  0
  1  2  1  0
  2  3  1  0
  3  4  2  0
  4  5  1  0
  5  6  2  0
  6  7  1  0
  7  8  2  0
  8  9  1  0
  9 10  1  0
 10 11  1  0
 11 12  2  0
 12 13  1  0
 13 14  2  0
 14 15  1  0
 14 16  1  0
 16 17  1  0
 16 18  2  0
  9 19  2  0
 19 20  1  0
 20 21  2  0
 21 22  1  0
 22 23  1  0
 23 24  1  0
 24 25  2  0
 26 24  1  6
 26 27  1  0
 27 28  1  0
 28 29  1  0
 29 30  1  0
 30 31  1  0
 31 32  1  6
 21  3  1  0
 31 26  1  0
 19  5  1  0
 18 11  1  0
M  CHG  1  31   1
M  END
$$$$
CHEMBL461967_diffdock_2
     RDKit          3D

 32 35  0  0  0  0  0  0  0  0999 V2000
  -14.9952   11.7309  -25.5833 C   0  0  0  0  0  0  0  0  0  0  0  0
  -15.0475   12.2815  -26.8634 O   0  0  0  0  0  0  0  0  0  0  0  0
  -14.0882   13.1887  -27.3197 C   0  0  0  0  0  0  0  0  0  0  0  0
  -12.9329   12.6607  -27.9118 C   0  0  0  0  0  0  0  0  0  0  0  0
  -11.9316   13.4587  -28.4028 C   0  0  0  0  0  0  0  0  0  0  0  0
  -10.8153   12.9738  -28.9751 N   0  0  0  0  0  0  0  0  0  0  0  0
   -9.8217   13.7358  -29.4641 C   0  0  0  0  0  0  0  0  0  0  0  0
   -9.9781   15.0681  -29.3623 N   0  0  0  0  0  0  0  0  0  0  0  0
  -11.0801   15.6118  -28.7960 C   0  0  0  0  0  0  0  0  0  0  0  0
  -11.2374   17.0252  -28.6999 N   0  0  0  0  0  0  0  0  0  0  0  0
  -10.4574   17.8591  -29.5323 C   0  0  0  0  0  0  0  0  0  0  0  0
   -9.9850   19.0429  -29.0396 C   0  0  0  0  0  0  0  0  0  0  0  0
   -9.2285   19.8274  -29.8886 C   0  0  0  0  0  0  0  0  0  0  0  0
   -8.9585   19.4309  -31.1885 C   0  0  0  0  0  0  0  0  0  0  0  0
   -8.2188   20.2240  -31.9805 F   0  0  0  0  0  0  0  0  0  0  0  0
   -9.4381   18.2343  -31.6807 C   0  0  0  0  0  0  0  0  0  0  0  0
   -9.1287   17.6821  -33.3199 Cl  0  0  0  0  0  0  0  0  0  0  0  0
  -10.1918   17.4600  -30.8239 C   0  0  0  0  0  0  0  0  0  0  0  0
  -12.0974   14.8219  -28.2953 C   0  0  0  0  0  0  0  0  0  0  0  0
  -13.2285   15.3447  -27.7142 C   0  0  0  0  0  0  0  0  0  0  0  0
  -14.2657   14.5458  -27.2035 C   0  0  0  0  0  0  0  0  0  0  0  0
  -15.4173   15.1803  -26.5304 C   0  0  0  0  0  0  0  0  0  0  0  0
  -15.2264   15.7010  -25.2319 N   0  0  0  0  0  0  0  0  0  0  0  0
  -15.1157   17.0327  -24.7840 C   0  0  0  0  0  0  0  0  0  0  0  0
  -15.5628   17.9510  -25.4881 O   0  0  0  0  0  0  0  0  0  0  0  0
  -14.4794   17.3967  -23.4874 C   0  0  1  0  0  0  0  0  0  0  0  0
  -13.3626   18.3750  -23.8163 C   0  0  0  0  0  0  0  0  0  0  0  0
  -13.9247   19.5957  -24.5094 C   0  0  0  0  0  0  0  0  0  0  0  0
  -15.1034   20.1930  -23.8271 C   0  0  0  0  0  0  0  0  0  0  0  0
  -15.9775   19.2625  -23.0669 C   0  0  0  0  0  0  0  0  0  0  0  0
  -15.3577   18.0703  -22.5942 N   0  0  1  0  0  4  0  0  0  0  0  0
  -16.3497   17.1824  -22.0258 C   0  0  0  0  0  0  0  0  0  0  0  0
  1  2  1  0
  2  3  1  0
  3  4  2  0
  4  5  1  0
  5  6  2  0
  6  7  1  0
  7  8  2  0
  8  9  1  0
  9 10  1  0
 10 11  1  0
 11 12  2  0
 12 13  1  0
 13 14  2  0
 14 15  1  0
 14 16  1  0
 16 17  1  0
 16 18  2  0
  9 19  2  0
 19 20  1  0
 20 21  2  0
 21 22  1  0
 22 23  1  0
 23 24  1  0
 24 25  2  0
 26 24  1  6
 26 27  1  0
 27 28  1  0
 28 29  1  0
 29 30  1  0
 30 31  1  0
 31 32  1  6
 21  3  1  0
 31 26  1  0
 19  5  1  0
 18 11  1  0
M  CHG  1  31   1
M  END
$$$$
CHEMBL461967_diffdock_3
     RDKit          3D

 32 35  0  0  0  0  0  0  0  0999 V2000
  -14.9406   10.9777  -26.3617 C   0  0  0  0  0  0  0  0  0  0  0  0
  -14.9983   12.3564  -26.1613 O   0  0  0  0  0  0  0  0  0  0  0  0
  -14.0874   13.2309  -26.7586 C   0  0  0  0  0  0  0  0  0  0  0  0
  -13.0995   12.6697  -27.5792 C   0  0  0  0  0  0  0  0  0  0  0  0
  -12.1607   13.4347  -28.2226 C   0  0  0  0  0  0  0  0  0  0  0  0
  -11.2047   12.9176  -29.0148 N   0  0  0  0  0  0  0  0  0  0  0  0
  -10.2752   13.6470  -29.6562 C   0  0  0  0  0  0  0  0  0  0  0  0
  -10.3261   14.9795  -29.4776 N   0  0  0  0  0  0  0  0  0  0  0  0
  -11.2655   15.5546  -28.6919 C   0  0  0  0  0  0  0  0  0  0  0  0
  -11.3132   16.9682  -28.5157 N   0  0  0  0  0  0  0  0  0  0  0  0
  -10.6018   17.7945  -29.4145 C   0  0  0  0  0  0  0  0  0  0  0  0
  -10.0301   18.9472  -28.9542 C   0  0  0  0  0  0  0  0  0  0  0  0
   -9.3459   19.7255  -29.8679 C   0  0  0  0  0  0  0  0  0  0  0  0
   -9.2426   19.3534  -31.1986 C   0  0  0  0  0  0  0  0  0  0  0  0
   -8.5683   20.1394  -32.0534 F   0  0  0  0  0  0  0  0  0  0  0  0
   -9.8221   18.1883  -31.6577 C   0  0  0  0  0  0  0  0  0  0  0  0
   -9.7247   17.6680  -33.3333 Cl  0  0  0  0  0  0  0  0  0  0  0  0
  -10.5022   17.4198  -30.7365 C   0  0  0  0  0  0  0  0  0  0  0  0
  -12.2177   14.7981  -28.0356 C   0  0  0  0  0  0  0  0  0  0  0  0
  -13.1841   15.3533  -27.2305 C   0  0  0  0  0  0  0  0  0  0  0  0
  -14.1545   14.5886  -26.5610 C   0  0  0  0  0  0  0  0  0  0  0  0
  -15.1167   15.2518  -25.6576 C   0  0  0  0  0  0  0  0  0  0  0  0
  -14.6215   16.2005  -24.7366 N   0  0  0  0  0  0  0  0  0  0  0  0
  -15.3010   17.0876  -23.8777 C   0  0  0  0  0  0  0  0  0  0  0  0
  -16.5376   17.1661  -23.9381 O   0  0  0  0  0  0  0  0  0  0  0  0
  -14.5968   17.9474  -22.8861 C   0  0  1  0  0  0  0  0  0  0  0  0
  -14.6983   19.3733  -23.4049 C   0  0  0  0  0  0  0  0  0  0  0  0
  -16.1490   19.7768  -23.5434 C   0  0  0  0  0  0  0  0  0  0  0  0
  -16.9785   19.4830  -22.3445 C   0  0  0  0  0  0  0  0  0  0  0  0
  -16.5751   18.3119  -21.5238 C   0  0  0  0  0  0  0  0  0  0  0  0
  -15.2019   17.9409  -21.5990 N   0  0  1  0  0  4  0  0  0  0  0  0
  -14.9812   16.6954  -20.8950 C   0  0  0  0  0  0  0  0  0  0  0  0
  1  2  1  0
  2  3  1  0
  3  4  2  0
  4  5  1  0
  5  6  2  0
  6  7  1  0
  7  8  2  0
  8  9  1  0
  9 10  1  0
 10 11  1  0
 11 12  2  0
 12 13  1  0
 13 14  2  0
 14 15  1  0
 14 16  1  0
 16 17  1  0
 16 18  2  0
  9 19  2  0
 19 20  1  0
 20 21  2  0
 21 22  1  0
 22 23  1  0
 23 24  1  0
 24 25  2  0
 26 24  1  6
 26 27  1  0
 27 28  1  0
 28 29  1  0
 29 30  1  0
 30 31  1  0
 31 32  1  6
 21  3  1  0
 31 26  1  0
 19  5  1  0
 18 11  1  0
M  CHG  1  31   1
M  END
$$$$
CHEMBL461967_diffdock_4
     RDKit          3D

 32 35  0  0  0  0  0  0  0  0999 V2000
  -15.7263   11.4357  -26.1756 C   0  0  0  0  0  0  0  0  0  0  0  0
  -15.6044   12.8082  -25.9618 O   0  0  0  0  0  0  0  0  0  0  0  0
  -14.5869   13.5625  -26.5509 C   0  0  0  0  0  0  0  0  0  0  0  0
  -13.6491   12.8773  -27.3351 C   0  0  0  0  0  0  0  0  0  0  0  0
  -12.6151   13.5187  -27.9676 C   0  0  0  0  0  0  0  0  0  0  0  0
  -11.7046   12.8814  -28.7250 N   0  0  0  0  0  0  0  0  0  0  0  0
  -10.6840   13.4886  -29.3550 C   0  0  0  0  0  0  0  0  0  0  0  0
  -10.5890   14.8218  -29.2020 N   0  0  0  0  0  0  0  0  0  0  0  0
  -11.4764   15.5148  -28.4517 C   0  0  0  0  0  0  0  0  0  0  0  0
  -11.3691   16.9282  -28.3025 N   0  0  0  0  0  0  0  0  0  0  0  0
  -10.4875   17.6408  -29.1462 C   0  0  0  0  0  0  0  0  0  0  0  0
   -9.7307   18.6511  -28.6228 C   0  0  0  0  0  0  0  0  0  0  0  0
   -8.8841   19.3219  -29.4841 C   0  0  0  0  0  0  0  0  0  0  0  0
   -8.8044   18.9849  -30.8257 C   0  0  0  0  0  0  0  0  0  0  0  0
   -7.9681   19.6630  -31.6283 F   0  0  0  0  0  0  0  0  0  0  0  0
   -9.5710   17.9637  -31.3487 C   0  0  0  0  0  0  0  0  0  0  0  0
   -9.5122   17.4945  -33.0410 Cl  0  0  0  0  0  0  0  0  0  0  0  0
  -10.4121   17.3015  -30.4793 C   0  0  0  0  0  0  0  0  0  0  0  0
  -12.5229   14.8836  -27.8068 C   0  0  0  0  0  0  0  0  0  0  0  0
  -13.4399   15.5602  -27.0375 C   0  0  0  0  0  0  0  0  0  0  0  0
  -14.5058   14.9230  -26.3797 C   0  0  0  0  0  0  0  0  0  0  0  0
  -15.4087   15.7085  -25.5140 C   0  0  0  0  0  0  0  0  0  0  0  0
  -15.1005   17.0679  -25.2886 N   0  0  0  0  0  0  0  0  0  0  0  0
  -14.7954   17.7546  -24.0963 C   0  0  0  0  0  0  0  0  0  0  0  0
  -15.1147   17.2543  -23.0069 O   0  0  0  0  0  0  0  0  0  0  0  0
  -14.0976   19.0703  -24.0799 C   0  0  1  0  0  0  0  0  0  0  0  0
  -15.0670   20.0784  -24.6771 C   0  0  0  0  0  0  0  0  0  0  0  0
  -16.3395   20.1260  -23.8616 C   0  0  0  0  0  0  0  0  0  0  0  0
  -16.1178   20.2578  -22.3970 C   0  0  0  0  0  0  0  0  0  0  0  0
  -14.8714   19.6590  -21.8535 C   0  0  0  0  0  0  0  0  0  0  0  0
  -13.7889   19.5322  -22.7706 N   0  0  1  0  0  4  0  0  0  0  0  0
  -12.7062   18.7852  -22.1661 C   0  0  0  0  0  0  0  0  0  0  0  0
  1  2  1  0
  2  3  1  0
  3  4  2  0
  4  5  1  0
  5  6  2  0
  6  7  1  0
  7  8  2  0
  8  9  1  0
  9 10  1  0
 10 11  1  0
 11 12  2  0
 12 13  1  0
 13 14  2  0
 14 15  1  0
 14 16  1  0
 16 17  1  0
 16 18  2  0
  9 19  2  0
 19 20  1  0
 20 21  2  0
 21 22  1  0
 22 23  1  0
 23 24  1  0
 24 25  2  0
 26 24  1  1
 26 27  1  0
 27 28  1  0
 28 29  1  0
 29 30  1  0
 30 31  1  0
 31 32  1  1
 21  3  1  0
 31 26  1  0
 19  5  1  0
 18 11  1  0
M  CHG  1  31   1
M  END
$$$$
CHEMBL461967_diffdock_5
     RDKit          3D

 32 35  0  0  0  0  0  0  0  0999 V2000
  -15.3906   10.7951  -26.9147 C   0  0  0  0  0  0  0  0  0  0  0  0
  -15.2556   12.1201  -26.5015 O   0  0  0  0  0  0  0  0  0  0  0  0
  -14.3544   12.9976  -27.1091 C   0  0  0  0  0  0  0  0  0  0  0  0
  -13.5282   12.4777  -28.1146 C   0  0  0  0  0  0  0  0  0  0  0  0
  -12.6146   13.2508  -28.7842 C   0  0  0  0  0  0  0  0  0  0  0  0
  -11.8125   12.7733  -29.7523 N   0  0  0  0  0  0  0  0  0  0  0  0
  -10.9110   13.5115  -30.4227 C   0  0  0  0  0  0  0  0  0  0  0  0
  -10.8248   14.8108  -30.0843 N   0  0  0  0  0  0  0  0  0  0  0  0
  -11.6063   15.3455  -29.1179 C   0  0  0  0  0  0  0  0  0  0  0  0
  -11.5104   16.7251  -28.7728 N   0  0  0  0  0  0  0  0  0  0  0  0
  -10.6995   17.5731  -29.5603 C   0  0  0  0  0  0  0  0  0  0  0  0
   -9.9619   18.5487  -28.9509 C   0  0  0  0  0  0  0  0  0  0  0  0
   -9.1850   19.3558  -29.7594 C   0  0  0  0  0  0  0  0  0  0  0  0
   -9.1539   19.1840  -31.1340 C   0  0  0  0  0  0  0  0  0  0  0  0
   -8.3850   19.9909  -31.8829 F   0  0  0  0  0  0  0  0  0  0  0  0
   -9.9010   18.1971  -31.7439 C   0  0  0  0  0  0  0  0  0  0  0  0
   -9.9016   17.9347  -33.4814 Cl  0  0  0  0  0  0  0  0  0  0  0  0
  -10.6722   17.3978  -30.9266 C   0  0  0  0  0  0  0  0  0  0  0  0
  -12.5308   14.5801  -28.4330 C   0  0  0  0  0  0  0  0  0  0  0  0
  -13.3383   15.0945  -27.4462 C   0  0  0  0  0  0  0  0  0  0  0  0
  -14.2798   14.3205  -26.7468 C   0  0  0  0  0  0  0  0  0  0  0  0
  -15.0617   14.9290  -25.6513 C   0  0  0  0  0  0  0  0  0  0  0  0
  -16.0152   15.9167  -25.9816 N   0  0  0  0  0  0  0  0  0  0  0  0
  -16.2044   17.2169  -25.4719 C   0  0  0  0  0  0  0  0  0  0  0  0
  -17.2918   17.7875  -25.6478 O   0  0  0  0  0  0  0  0  0  0  0  0
  -15.1474   17.9499  -24.7210 C   0  0  1  0  0  0  0  0  0  0  0  0
  -14.6634   19.0634  -25.6366 C   0  0  0  0  0  0  0  0  0  0  0  0
  -15.8111   19.9797  -25.9967 C   0  0  0  0  0  0  0  0  0  0  0  0
  -16.6180   20.4296  -24.8313 C   0  0  0  0  0  0  0  0  0  0  0  0
  -16.7042   19.4965  -23.6783 C   0  0  0  0  0  0  0  0  0  0  0  0
  -15.6248   18.5778  -23.5374 N   0  0  1  0  0  4  0  0  0  0  0  0
  -15.9141   17.6234  -22.4881 C   0  0  0  0  0  0  0  0  0  0  0  0
  1  2  1  0
  2  3  1  0
  3  4  2  0
  4  5  1  0
  5  6  2  0
  6  7  1  0
  7  8  2  0
  8  9  1  0
  9 10  1  0
 10 11  1  0
 11 12  2  0
 12 13  1  0
 13 14  2  0
 14 15  1  0
 14 16  1  0
 16 17  1  0
 16 18  2  0
  9 19  2  0
 19 20  1  0
 20 21  2  0
 21 22  1  0
 22 23  1  0
 23 24  1  0
 24 25  2  0
 26 24  1  6
 26 27  1  0
 27 28  1  0
 28 29  1  0
 29 30  1  0
 30 31  1  0
 31 32  1  1
 21  3  1  0
 31 26  1  0
 19  5  1  0
 18 11  1  0
M  CHG  1  31   1
M  END
$$$$
CHEMBL461967_diffdock_6
     RDKit          3D

 32 35  0  0  0  0  0  0  0  0999 V2000
  -15.5870   11.0051  -26.9937 C   0  0  0  0  0  0  0  0  0  0  0  0
  -15.5154   12.3701  -26.7175 O   0  0  0  0  0  0  0  0  0  0  0  0
  -14.4650   13.1658  -27.1811 C   0  0  0  0  0  0  0  0  0  0  0  0
  -13.5184   12.5591  -28.0177 C   0  0  0  0  0  0  0  0  0  0  0  0
  -12.4526   13.2478  -28.5377 C   0  0  0  0  0  0  0  0  0  0  0  0
  -11.5332   12.6861  -29.3427 N   0  0  0  0  0  0  0  0  0  0  0  0
  -10.4815   13.3408  -29.8648 C   0  0  0  0  0  0  0  0  0  0  0  0
  -10.3633   14.6425  -29.5461 N   0  0  0  0  0  0  0  0  0  0  0  0
  -11.2582   15.2597  -28.7406 C   0  0  0  0  0  0  0  0  0  0  0  0
  -11.1260   16.6411  -28.4155 N   0  0  0  0  0  0  0  0  0  0  0  0
  -10.2438   17.4419  -29.1752 C   0  0  0  0  0  0  0  0  0  0  0  0
   -9.4338   18.3374  -28.5353 C   0  0  0  0  0  0  0  0  0  0  0  0
   -8.5887   19.1008  -29.3174 C   0  0  0  0  0  0  0  0  0  0  0  0
   -8.5622   18.9650  -30.6960 C   0  0  0  0  0  0  0  0  0  0  0  0
   -7.7254   19.7272  -31.4186 F   0  0  0  0  0  0  0  0  0  0  0  0
   -9.3825   18.0591  -31.3367 C   0  0  0  0  0  0  0  0  0  0  0  0
   -9.3926   17.8457  -33.0809 Cl  0  0  0  0  0  0  0  0  0  0  0  0
  -10.2215   17.3028  -30.5457 C   0  0  0  0  0  0  0  0  0  0  0  0
  -12.3368   14.5800  -28.2075 C   0  0  0  0  0  0  0  0  0  0  0  0
  -13.2622   15.1793  -27.3860 C   0  0  0  0  0  0  0  0  0  0  0  0
  -14.3606   14.4926  -26.8413 C   0  0  0  0  0  0  0  0  0  0  0  0
  -15.2726   15.1879  -25.9104 C   0  0  0  0  0  0  0  0  0  0  0  0
  -14.7157   16.1026  -24.9902 N   0  0  0  0  0  0  0  0  0  0  0  0
  -15.2022   17.3367  -24.5140 C   0  0  0  0  0  0  0  0  0  0  0  0
  -16.4096   17.5989  -24.6252 O   0  0  0  0  0  0  0  0  0  0  0  0
  -14.3248   18.3559  -23.8738 C   0  0  1  0  0  0  0  0  0  0  0  0
  -14.8193   19.7114  -24.3542 C   0  0  0  0  0  0  0  0  0  0  0  0
  -16.2650   19.9105  -23.9582 C   0  0  0  0  0  0  0  0  0  0  0  0
  -16.5514   19.6061  -22.5310 C   0  0  0  0  0  0  0  0  0  0  0  0
  -15.7083   18.5654  -21.8877 C   0  0  0  0  0  0  0  0  0  0  0  0
  -14.4160   18.3715  -22.4545 N   0  0  1  0  0  4  0  0  0  0  0  0
  -13.7719   17.2245  -21.8505 C   0  0  0  0  0  0  0  0  0  0  0  0
  1  2  1  0
  2  3  1  0
  3  4  2  0
  4  5  1  0
  5  6  2  0
  6  7  1  0
  7  8  2  0
  8  9  1  0
  9 10  1  0
 10 11  1  0
 11 12  2  0
 12 13  1  0
 13 14  2  0
 14 15  1  0
 14 16  1  0
 16 17  1  0
 16 18  2  0
  9 19  2  0
 19 20  1  0
 20 21  2  0
 21 22  1  0
 22 23  1  0
 23 24  1  0
 24 25  2  0
 26 24  1  6
 26 27  1  0
 27 28  1  0
 28 29  1  0
 29 30  1  0
 30 31  1  0
 31 32  1  1
 21  3  1  0
 31 26  1  0
 19  5  1  0
 18 11  1  0
M  CHG  1  31   1
M  END
$$$$
CHEMBL461967_diffdock_7
     RDKit          3D

 32 35  0  0  0  0  0  0  0  0999 V2000
  -14.7352   10.8057  -26.2500 C   0  0  0  0  0  0  0  0  0  0  0  0
  -14.7016   12.1306  -25.8163 O   0  0  0  0  0  0  0  0  0  0  0  0
  -13.8934   13.0908  -26.4296 C   0  0  0  0  0  0  0  0  0  0  0  0
  -13.0470   12.6575  -27.4591 C   0  0  0  0  0  0  0  0  0  0  0  0
  -12.2187   13.5156  -28.1361 C   0  0  0  0  0  0  0  0  0  0  0  0
  -11.3993   13.1218  -29.1272 N   0  0  0  0  0  0  0  0  0  0  0  0
  -10.5800   13.9442  -29.8052 C   0  0  0  0  0  0  0  0  0  0  0  0
  -10.5997   15.2416  -29.4500 N   0  0  0  0  0  0  0  0  0  0  0  0
  -11.4037   15.6941  -28.4603 C   0  0  0  0  0  0  0  0  0  0  0  0
  -11.4204   17.0724  -28.0976 N   0  0  0  0  0  0  0  0  0  0  0  0
  -10.7336   18.0026  -28.9098 C   0  0  0  0  0  0  0  0  0  0  0  0
  -10.2017   19.1246  -28.3392 C   0  0  0  0  0  0  0  0  0  0  0  0
   -9.5404   20.0075  -29.1709 C   0  0  0  0  0  0  0  0  0  0  0  0
   -9.4203   19.7663  -30.5300 C   0  0  0  0  0  0  0  0  0  0  0  0
   -8.7693   20.6509  -31.3026 F   0  0  0  0  0  0  0  0  0  0  0  0
   -9.9594   18.6315  -31.1007 C   0  0  0  0  0  0  0  0  0  0  0  0
   -9.8391   18.2752  -32.8172 Cl  0  0  0  0  0  0  0  0  0  0  0  0
  -10.6170   17.7578  -30.2605 C   0  0  0  0  0  0  0  0  0  0  0  0
  -12.2431   14.8426  -27.7677 C   0  0  0  0  0  0  0  0  0  0  0  0
  -13.0708   15.2723  -26.7574 C   0  0  0  0  0  0  0  0  0  0  0  0
  -13.9262   14.4105  -26.0500 C   0  0  0  0  0  0  0  0  0  0  0  0
  -14.7341   14.9349  -24.9302 C   0  0  0  0  0  0  0  0  0  0  0  0
  -16.1037   14.5954  -24.8800 N   0  0  0  0  0  0  0  0  0  0  0  0
  -17.0459   14.7320  -23.8408 C   0  0  0  0  0  0  0  0  0  0  0  0
  -16.7345   15.3559  -22.8148 O   0  0  0  0  0  0  0  0  0  0  0  0
  -18.4174   14.1560  -23.9156 C   0  0  1  0  0  0  0  0  0  0  0  0
  -18.3740   12.8420  -23.1513 C   0  0  0  0  0  0  0  0  0  0  0  0
  -17.9624   13.0854  -21.7168 C   0  0  0  0  0  0  0  0  0  0  0  0
  -18.7148   14.1787  -21.0459 C   0  0  0  0  0  0  0  0  0  0  0  0
  -19.1986   15.2854  -21.9113 C   0  0  0  0  0  0  0  0  0  0  0  0
  -19.4053   14.9600  -23.2826 N   0  0  1  0  0  4  0  0  0  0  0  0
  -19.7077   16.1559  -24.0402 C   0  0  0  0  0  0  0  0  0  0  0  0
  1  2  1  0
  2  3  1  0
  3  4  2  0
  4  5  1  0
  5  6  2  0
  6  7  1  0
  7  8  2  0
  8  9  1  0
  9 10  1  0
 10 11  1  0
 11 12  2  0
 12 13  1  0
 13 14  2  0
 14 15  1  0
 14 16  1  0
 16 17  1  0
 16 18  2  0
  9 19  2  0
 19 20  1  0
 20 21  2  0
 21 22  1  0
 22 23  1  0
 23 24  1  0
 24 25  2  0
 26 24  1  1
 26 27  1  0
 27 28  1  0
 28 29  1  0
 29 30  1  0
 30 31  1  0
 31 32  1  6
 21  3  1  0
 31 26  1  0
 19  5  1  0
 18 11  1  0
M  CHG  1  31   1
M  END
$$$$
CHEMBL461967_diffdock_8
     RDKit          3D

 32 35  0  0  0  0  0  0  0  0999 V2000
  -15.7290   11.5895  -26.3933 C   0  0  0  0  0  0  0  0  0  0  0  0
  -15.7785   12.9815  -26.3267 O   0  0  0  0  0  0  0  0  0  0  0  0
  -14.7901   13.7864  -26.8980 C   0  0  0  0  0  0  0  0  0  0  0  0
  -13.7459   13.1414  -27.5745 C   0  0  0  0  0  0  0  0  0  0  0  0
  -12.7286   13.8329  -28.1806 C   0  0  0  0  0  0  0  0  0  0  0  0
  -11.7175   13.2348  -28.8353 N   0  0  0  0  0  0  0  0  0  0  0  0
  -10.7108   13.8912  -29.4375 C   0  0  0  0  0  0  0  0  0  0  0  0
  -10.7393   15.2344  -29.3662 N   0  0  0  0  0  0  0  0  0  0  0  0
  -11.7316   15.8896  -28.7207 C   0  0  0  0  0  0  0  0  0  0  0  0
  -11.7545   17.3133  -28.6578 N   0  0  0  0  0  0  0  0  0  0  0  0
  -10.9083   18.0504  -29.5165 C   0  0  0  0  0  0  0  0  0  0  0  0
  -10.4534   19.2757  -29.1177 C   0  0  0  0  0  0  0  0  0  0  0  0
   -9.6302   19.9620  -29.9894 C   0  0  0  0  0  0  0  0  0  0  0  0
   -9.2788   19.4303  -31.2197 C   0  0  0  0  0  0  0  0  0  0  0  0
   -8.4761   20.1311  -32.0369 F   0  0  0  0  0  0  0  0  0  0  0  0
   -9.7411   18.1924  -31.6171 C   0  0  0  0  0  0  0  0  0  0  0  0
   -9.3296   17.4701  -33.1652 Cl  0  0  0  0  0  0  0  0  0  0  0  0
  -10.5618   17.5169  -30.7386 C   0  0  0  0  0  0  0  0  0  0  0  0
  -12.7632   15.2078  -28.1038 C   0  0  0  0  0  0  0  0  0  0  0  0
  -13.7848   15.8452  -27.4402 C   0  0  0  0  0  0  0  0  0  0  0  0
  -14.8360   15.1566  -26.8113 C   0  0  0  0  0  0  0  0  0  0  0  0
  -15.8595   15.9093  -26.0579 C   0  0  0  0  0  0  0  0  0  0  0  0
  -15.9002   15.7577  -24.6547 N   0  0  0  0  0  0  0  0  0  0  0  0
  -15.7211   16.7019  -23.6238 C   0  0  0  0  0  0  0  0  0  0  0  0
  -15.5878   17.9009  -23.9128 O   0  0  0  0  0  0  0  0  0  0  0  0
  -15.6842   16.3251  -22.1833 C   0  0  1  0  0  0  0  0  0  0  0  0
  -14.5424   17.1142  -21.5618 C   0  0  0  0  0  0  0  0  0  0  0  0
  -14.7797   18.5979  -21.7312 C   0  0  0  0  0  0  0  0  0  0  0  0
  -16.1418   19.0445  -21.3351 C   0  0  0  0  0  0  0  0  0  0  0  0
  -17.2422   18.0601  -21.5014 C   0  0  0  0  0  0  0  0  0  0  0  0
  -16.8612   16.6879  -21.4720 N   0  0  1  0  0  4  0  0  0  0  0  0
  -17.9898   15.8481  -21.8136 C   0  0  0  0  0  0  0  0  0  0  0  0
  1  2  1  0
  2  3  1  0
  3  4  2  0
  4  5  1  0
  5  6  2  0
  6  7  1  0
  7  8  2  0
  8  9  1  0
  9 10  1  0
 10 11  1  0
 11 12  2  0
 12 13  1  0
 13 14  2  0
 14 15  1  0
 14 16  1  0
 16 17  1  0
 16 18  2  0
  9 19  2  0
 19 20  1  0
 20 21  2  0
 21 22  1  0
 22 23  1  0
 23 24  1  0
 24 25  2  0
 26 24  1  6
 26 27  1  0
 27 28  1  0
 28 29  1  0
 29 30  1  0
 30 31  1  0
 31 32  1  6
 21  3  1  0
 31 26  1  0
 19  5  1  0
 18 11  1  0
M  CHG  1  31   1
M  END
$$$$
CHEMBL461967_diffdock_9
     RDKit          3D

 32 35  0  0  0  0  0  0  0  0999 V2000
  -15.4382   11.1519  -26.9450 C   0  0  0  0  0  0  0  0  0  0  0  0
  -15.5460   12.5325  -26.7820 O   0  0  0  0  0  0  0  0  0  0  0  0
  -14.6095   13.4177  -27.3214 C   0  0  0  0  0  0  0  0  0  0  0  0
  -13.4931   12.8627  -27.9613 C   0  0  0  0  0  0  0  0  0  0  0  0
  -12.5172   13.6374  -28.5342 C   0  0  0  0  0  0  0  0  0  0  0  0
  -11.4384   13.1263  -29.1536 N   0  0  0  0  0  0  0  0  0  0  0  0
  -10.4702   13.8651  -29.7229 C   0  0  0  0  0  0  0  0  0  0  0  0
  -10.6133   15.2012  -29.6552 N   0  0  0  0  0  0  0  0  0  0  0  0
  -11.6779   15.7706  -29.0445 C   0  0  0  0  0  0  0  0  0  0  0  0
  -11.8216   17.1874  -28.9851 N   0  0  0  0  0  0  0  0  0  0  0  0
  -11.0074   17.9936  -29.8120 C   0  0  0  0  0  0  0  0  0  0  0  0
  -10.5136   19.1699  -29.3224 C   0  0  0  0  0  0  0  0  0  0  0  0
   -9.7238   19.9271  -30.1659 C   0  0  0  0  0  0  0  0  0  0  0  0
   -9.4424   19.5115  -31.4573 C   0  0  0  0  0  0  0  0  0  0  0  0
   -8.6702   20.2782  -32.2442 F   0  0  0  0  0  0  0  0  0  0  0  0
   -9.9438   18.3226  -31.9464 C   0  0  0  0  0  0  0  0  0  0  0  0
   -9.6214   17.7470  -33.5750 Cl  0  0  0  0  0  0  0  0  0  0  0  0
  -10.7307   17.5755  -31.0953 C   0  0  0  0  0  0  0  0  0  0  0  0
  -12.6691   15.0045  -28.4613 C   0  0  0  0  0  0  0  0  0  0  0  0
  -13.7620   15.5537  -27.8335 C   0  0  0  0  0  0  0  0  0  0  0  0
  -14.7726   14.7791  -27.2389 C   0  0  0  0  0  0  0  0  0  0  0  0
  -15.8801   15.4431  -26.5217 C   0  0  0  0  0  0  0  0  0  0  0  0
  -15.8491   15.4530  -25.1101 N   0  0  0  0  0  0  0  0  0  0  0  0
  -15.6024   16.5045  -24.2046 C   0  0  0  0  0  0  0  0  0  0  0  0
  -15.9088   17.6644  -24.5206 O   0  0  0  0  0  0  0  0  0  0  0  0
  -14.9835   16.2880  -22.8673 C   0  0  1  0  0  0  0  0  0  0  0  0
  -14.1158   17.5063  -22.5930 C   0  0  0  0  0  0  0  0  0  0  0  0
  -14.9585   18.7618  -22.6069 C   0  0  0  0  0  0  0  0  0  0  0  0
  -16.1952   18.6725  -21.7857 C   0  0  0  0  0  0  0  0  0  0  0  0
  -16.8115   17.3274  -21.6504 C   0  0  0  0  0  0  0  0  0  0  0  0
  -15.9308   16.2190  -21.8086 N   0  0  1  0  0  4  0  0  0  0  0  0
  -16.6819   14.9817  -21.8239 C   0  0  0  0  0  0  0  0  0  0  0  0
  1  2  1  0
  2  3  1  0
  3  4  2  0
  4  5  1  0
  5  6  2  0
  6  7  1  0
  7  8  2  0
  8  9  1  0
  9 10  1  0
 10 11  1  0
 11 12  2  0
 12 13  1  0
 13 14  2  0
 14 15  1  0
 14 16  1  0
 16 17  1  0
 16 18  2  0
  9 19  2  0
 19 20  1  0
 20 21  2  0
 21 22  1  0
 22 23  1  0
 23 24  1  0
 24 25  2  0
 26 24  1  6
 26 27  1  0
 27 28  1  0
 28 29  1  0
 29 30  1  0
 30 31  1  0
 31 32  1  6
 21  3  1  0
 31 26  1  0
 19  5  1  0
 18 11  1  0
M  CHG  1  31   1
M  END
$$$$
CHEMBL461967_diffdock_10
     RDKit          3D

 32 35  0  0  0  0  0  0  0  0999 V2000
  -15.9277   10.9734  -26.8035 C   0  0  0  0  0  0  0  0  0  0  0  0
  -15.7570   12.2786  -26.3434 O   0  0  0  0  0  0  0  0  0  0  0  0
  -14.8977   13.1807  -26.9752 C   0  0  0  0  0  0  0  0  0  0  0  0
  -14.1573   12.7076  -28.0670 C   0  0  0  0  0  0  0  0  0  0  0  0
  -13.2914   13.5084  -28.7667 C   0  0  0  0  0  0  0  0  0  0  0  0
  -12.5718   13.0759  -29.8173 N   0  0  0  0  0  0  0  0  0  0  0  0
  -11.7183   13.8420  -30.5185 C   0  0  0  0  0  0  0  0  0  0  0  0
  -11.5937   15.1220  -30.1236 N   0  0  0  0  0  0  0  0  0  0  0  0
  -12.2925   15.6117  -29.0736 C   0  0  0  0  0  0  0  0  0  0  0  0
  -12.1570   16.9716  -28.6688 N   0  0  0  0  0  0  0  0  0  0  0  0
  -11.3685   17.8439  -29.4524 C   0  0  0  0  0  0  0  0  0  0  0  0
  -10.7331   18.8937  -28.8511 C   0  0  0  0  0  0  0  0  0  0  0  0
   -9.9745   19.7219  -29.6556 C   0  0  0  0  0  0  0  0  0  0  0  0
   -9.8615   19.4983  -31.0184 C   0  0  0  0  0  0  0  0  0  0  0  0
   -9.1138   20.3281  -31.7638 F   0  0  0  0  0  0  0  0  0  0  0  0
  -10.5054   18.4365  -31.6201 C   0  0  0  0  0  0  0  0  0  0  0  0
  -10.3991   18.1060  -33.3427 Cl  0  0  0  0  0  0  0  0  0  0  0  0
  -11.2594   17.6169  -30.8069 C   0  0  0  0  0  0  0  0  0  0  0  0
  -13.1679   14.8178  -28.3573 C   0  0  0  0  0  0  0  0  0  0  0  0
  -13.8913   15.2863  -27.2860 C   0  0  0  0  0  0  0  0  0  0  0  0
  -14.7826   14.4832  -26.5544 C   0  0  0  0  0  0  0  0  0  0  0  0
  -15.4710   15.0400  -25.3721 C   0  0  0  0  0  0  0  0  0  0  0  0
  -16.8780   14.9383  -25.3105 N   0  0  0  0  0  0  0  0  0  0  0  0
  -17.8334   15.7782  -24.7037 C   0  0  0  0  0  0  0  0  0  0  0  0
  -18.2679   16.7575  -25.3292 O   0  0  0  0  0  0  0  0  0  0  0  0
  -18.3550   15.5436  -23.3285 C   0  0  1  0  0  0  0  0  0  0  0  0
  -18.5007   16.9136  -22.6846 C   0  0  0  0  0  0  0  0  0  0  0  0
  -19.4515   17.7707  -23.4895 C   0  0  0  0  0  0  0  0  0  0  0  0
  -20.7323   17.0982  -23.8340 C   0  0  0  0  0  0  0  0  0  0  0  0
  -20.6877   15.6227  -24.0027 C   0  0  0  0  0  0  0  0  0  0  0  0
  -19.6456   14.9464  -23.3058 N   0  0  1  0  0  4  0  0  0  0  0  0
  -19.6115   13.5509  -23.6889 C   0  0  0  0  0  0  0  0  0  0  0  0
  1  2  1  0
  2  3  1  0
  3  4  2  0
  4  5  1  0
  5  6  2  0
  6  7  1  0
  7  8  2  0
  8  9  1  0
  9 10  1  0
 10 11  1  0
 11 12  2  0
 12 13  1  0
 13 14  2  0
 14 15  1  0
 14 16  1  0
 16 17  1  0
 16 18  2  0
  9 19  2  0
 19 20  1  0
 20 21  2  0
 21 22  1  0
 22 23  1  0
 23 24  1  0
 24 25  2  0
 26 24  1  6
 26 27  1  0
 27 28  1  0
 28 29  1  0
 29 30  1  0
 30 31  1  0
 31 32  1  6
 21  3  1  0
 31 26  1  0
 19  5  1  0
 18 11  1  0
M  CHG  1  31   1
M  END
$$$$
CHEMBL4439338_diffdock_1
     RDKit          3D

 42 46  0  0  0  0  0  0  0  0999 V2000
  -16.2190   11.0308  -27.1470 C   0  0  0  0  0  0  0  0  0  0  0  0
  -15.6515   12.1847  -26.5520 O   0  0  0  0  0  0  0  0  0  0  0  0
  -14.6959   12.9543  -27.1581 C   0  0  0  0  0  0  0  0  0  0  0  0
  -13.7647   12.4011  -27.9840 C   0  0  0  0  0  0  0  0  0  0  0  0
  -12.7807   13.1232  -28.6219 C   0  0  0  0  0  0  0  0  0  0  0  0
  -11.8781   12.5115  -29.4321 N   0  0  0  0  0  0  0  0  0  0  0  0
  -10.9436   13.2695  -30.0217 C   0  0  0  0  0  0  0  0  0  0  0  0
  -10.8875   14.5817  -29.8318 N   0  0  0  0  0  0  0  0  0  0  0  0
  -11.7700   15.2142  -29.0336 C   0  0  0  0  0  0  0  0  0  0  0  0
  -11.6851   16.6159  -28.8894 N   0  0  0  0  0  0  0  0  0  0  0  0
  -10.7055   17.3269  -29.6491 C   0  0  0  0  0  0  0  0  0  0  0  0
   -9.8885   18.2301  -28.9982 C   0  0  0  0  0  0  0  0  0  0  0  0
   -8.9342   18.8965  -29.7213 C   0  0  0  0  0  0  0  0  0  0  0  0
   -8.7514   18.7114  -31.0581 C   0  0  0  0  0  0  0  0  0  0  0  0
   -7.8399   19.3264  -31.8177 O   0  0  0  0  0  0  0  0  0  0  0  0
   -6.7564   20.0926  -31.6215 C   0  0  0  0  0  0  0  0  0  0  0  0
   -6.6086   21.2848  -32.4815 C   0  0  0  0  0  0  0  0  0  0  0  0
   -5.4797   22.0359  -32.5268 C   0  0  0  0  0  0  0  0  0  0  0  0
   -5.4402   23.1474  -33.3529 C   0  0  0  0  0  0  0  0  0  0  0  0
   -6.5105   23.5094  -34.1262 C   0  0  0  0  0  0  0  0  0  0  0  0
   -7.6412   22.7209  -34.0540 C   0  0  0  0  0  0  0  0  0  0  0  0
   -8.7218   23.0536  -34.8099 F   0  0  0  0  0  0  0  0  0  0  0  0
   -7.7145   21.6168  -33.2491 C   0  0  0  0  0  0  0  0  0  0  0  0
   -9.5966   17.7827  -31.7091 C   0  0  0  0  0  0  0  0  0  0  0  0
   -9.4083   17.5009  -33.4352 Cl  0  0  0  0  0  0  0  0  0  0  0  0
  -10.5428   17.1204  -30.9975 C   0  0  0  0  0  0  0  0  0  0  0  0
  -12.7478   14.4977  -28.4003 C   0  0  0  0  0  0  0  0  0  0  0  0
  -13.6858   15.0543  -27.5663 C   0  0  0  0  0  0  0  0  0  0  0  0
  -14.6804   14.3438  -26.9193 C   0  0  0  0  0  0  0  0  0  0  0  0
  -15.6244   14.8723  -26.0878 O   0  0  0  0  0  0  0  0  0  0  0  0
  -15.5036   15.8870  -25.1705 C   0  0  0  0  0  0  0  0  0  0  0  0
  -16.3984   17.0663  -25.3394 C   0  0  0  0  0  0  0  0  0  0  0  0
  -16.2775   17.9486  -24.0986 C   0  0  0  0  0  0  0  0  0  0  0  0
  -16.7073   17.2794  -22.8966 N   0  0  2  0  0  4  0  0  0  0  0  0
  -18.1866   17.3659  -22.9269 C   0  0  0  0  0  0  0  0  0  0  0  0
  -18.8566   17.5708  -21.6023 C   0  0  0  0  0  0  0  0  0  0  0  0
  -18.8446   18.8132  -20.9776 N   0  0  0  0  0  0  0  0  0  0  0  0
  -18.1163   19.1264  -19.8127 C   0  0  0  0  0  0  0  0  0  0  0  0
  -16.7787   19.7609  -19.9228 C   0  0  0  0  0  0  0  0  0  0  0  0
  -15.6020   18.9406  -19.8294 N   0  0  0  0  0  4  0  0  0  0  0  0
  -15.1589   18.3487  -21.1218 C   0  0  0  0  0  0  0  0  0  0  0  0
  -16.4446   18.0577  -21.7454 C   0  0  0  0  0  0  0  0  0  0  0  0
  1  2  1  0
  2  3  1  0
  3  4  2  0
  4  5  1  0
  5  6  2  0
  6  7  1  0
  7  8  2  0
  8  9  1  0
  9 10  1  0
 10 11  1  0
 11 12  2  0
 12 13  1  0
 13 14  2  0
 14 15  1  0
 15 16  1  0
 16 17  1  0
 17 18  2  0
 18 19  1  0
 19 20  2  0
 20 21  1  0
 21 22  1  0
 21 23  2  0
 14 24  1  0
 24 25  1  0
 24 26  2  0
  9 27  2  0
 27 28  1  0
 28 29  2  0
 29 30  1  0
 30 31  1  0
 31 32  1  0
 32 33  1  0
 34 33  1  6
 34 35  1  0
 35 36  1  0
 36 37  1  0
 37 38  1  0
 38 39  1  0
 39 40  1  0
 40 41  1  0
 41 42  1  0
 29  3  1  0
 42 34  1  0
 27  5  1  0
 26 11  1  0
 23 17  1  0
M  CHG  2  34   1  40   1
M  END
$$$$
CHEMBL4439338_diffdock_2
     RDKit          3D

 42 46  0  0  0  0  0  0  0  0999 V2000
  -14.7185   11.1207  -26.9622 C   0  0  0  0  0  0  0  0  0  0  0  0
  -14.6885   12.5091  -26.6812 O   0  0  0  0  0  0  0  0  0  0  0  0
  -13.7978   13.3761  -27.2535 C   0  0  0  0  0  0  0  0  0  0  0  0
  -12.7682   12.9237  -28.0219 C   0  0  0  0  0  0  0  0  0  0  0  0
  -11.8420   13.7464  -28.6236 C   0  0  0  0  0  0  0  0  0  0  0  0
  -10.8349   13.2327  -29.3768 N   0  0  0  0  0  0  0  0  0  0  0  0
   -9.9645   14.0860  -29.9334 C   0  0  0  0  0  0  0  0  0  0  0  0
  -10.0691   15.3982  -29.7652 N   0  0  0  0  0  0  0  0  0  0  0  0
  -11.0579   15.9346  -29.0235 C   0  0  0  0  0  0  0  0  0  0  0  0
  -11.1418   17.3385  -28.9013 N   0  0  0  0  0  0  0  0  0  0  0  0
  -10.4790   18.1536  -29.8700 C   0  0  0  0  0  0  0  0  0  0  0  0
   -9.8273   19.2939  -29.4433 C   0  0  0  0  0  0  0  0  0  0  0  0
   -9.1728   20.0647  -30.3680 C   0  0  0  0  0  0  0  0  0  0  0  0
   -9.1338   19.7602  -31.6949 C   0  0  0  0  0  0  0  0  0  0  0  0
   -8.5128   20.4671  -32.6440 O   0  0  0  0  0  0  0  0  0  0  0  0
   -7.4814   21.3221  -32.7123 C   0  0  0  0  0  0  0  0  0  0  0  0
   -6.1810   20.8536  -32.1903 C   0  0  0  0  0  0  0  0  0  0  0  0
   -5.2821   21.6708  -31.5863 C   0  0  0  0  0  0  0  0  0  0  0  0
   -4.0803   21.1430  -31.1430 C   0  0  0  0  0  0  0  0  0  0  0  0
   -3.7742   19.8175  -31.2975 C   0  0  0  0  0  0  0  0  0  0  0  0
   -4.7135   19.0171  -31.9160 C   0  0  0  0  0  0  0  0  0  0  0  0
   -4.4398   17.6956  -32.0847 F   0  0  0  0  0  0  0  0  0  0  0  0
   -5.9100   19.5052  -32.3659 C   0  0  0  0  0  0  0  0  0  0  0  0
   -9.8063   18.5888  -32.1148 C   0  0  0  0  0  0  0  0  0  0  0  0
   -9.7914   18.1435  -33.8166 Cl  0  0  0  0  0  0  0  0  0  0  0  0
  -10.4556   17.8224  -31.2032 C   0  0  0  0  0  0  0  0  0  0  0  0
  -11.9784   15.1182  -28.4262 C   0  0  0  0  0  0  0  0  0  0  0  0
  -13.0155   15.5733  -27.6501 C   0  0  0  0  0  0  0  0  0  0  0  0
  -13.9539   14.7611  -27.0399 C   0  0  0  0  0  0  0  0  0  0  0  0
  -14.9937   15.1876  -26.2661 O   0  0  0  0  0  0  0  0  0  0  0  0
  -14.9962   16.1035  -25.2431 C   0  0  0  0  0  0  0  0  0  0  0  0
  -16.3230   16.5716  -24.7527 C   0  0  0  0  0  0  0  0  0  0  0  0
  -16.0969   17.6658  -23.7115 C   0  0  0  0  0  0  0  0  0  0  0  0
  -16.8854   17.4714  -22.5207 N   0  0  2  0  0  4  0  0  0  0  0  0
  -17.8351   18.6092  -22.5091 C   0  0  0  0  0  0  0  0  0  0  0  0
  -18.1516   19.1826  -21.1614 C   0  0  0  0  0  0  0  0  0  0  0  0
  -17.2414   19.9978  -20.4975 N   0  0  0  0  0  0  0  0  0  0  0  0
  -16.5207   19.6335  -19.3428 C   0  0  0  0  0  0  0  0  0  0  0  0
  -15.1418   19.0978  -19.4677 C   0  0  0  0  0  0  0  0  0  0  0  0
  -14.9344   17.6758  -19.4319 N   0  0  0  0  0  4  0  0  0  0  0  0
  -15.0555   17.0016  -20.7540 C   0  0  0  0  0  0  0  0  0  0  0  0
  -16.1445   17.7648  -21.3524 C   0  0  0  0  0  0  0  0  0  0  0  0
  1  2  1  0
  2  3  1  0
  3  4  2  0
  4  5  1  0
  5  6  2  0
  6  7  1  0
  7  8  2  0
  8  9  1  0
  9 10  1  0
 10 11  1  0
 11 12  2  0
 12 13  1  0
 13 14  2  0
 14 15  1  0
 15 16  1  0
 16 17  1  0
 17 18  2  0
 18 19  1  0
 19 20  2  0
 20 21  1  0
 21 22  1  0
 21 23  2  0
 14 24  1  0
 24 25  1  0
 24 26  2  0
  9 27  2  0
 27 28  1  0
 28 29  2  0
 29 30  1  0
 30 31  1  0
 31 32  1  0
 32 33  1  0
 34 33  1  6
 34 35  1  0
 35 36  1  0
 36 37  1  0
 37 38  1  0
 38 39  1  0
 39 40  1  0
 40 41  1  0
 41 42  1  0
 29  3  1  0
 42 34  1  0
 27  5  1  0
 26 11  1  0
 23 17  1  0
M  CHG  2  34   1  40   1
M  END
$$$$
CHEMBL4439338_diffdock_3
     RDKit          3D

 42 46  0  0  0  0  0  0  0  0999 V2000
  -14.9420   10.7361  -26.1781 C   0  0  0  0  0  0  0  0  0  0  0  0
  -15.1643   12.1308  -26.2910 O   0  0  0  0  0  0  0  0  0  0  0  0
  -14.2596   12.9973  -26.8421 C   0  0  0  0  0  0  0  0  0  0  0  0
  -13.2792   12.5553  -27.6780 C   0  0  0  0  0  0  0  0  0  0  0  0
  -12.3422   13.3782  -28.2625 C   0  0  0  0  0  0  0  0  0  0  0  0
  -11.3863   12.8751  -29.0862 N   0  0  0  0  0  0  0  0  0  0  0  0
  -10.5020   13.7276  -29.6217 C   0  0  0  0  0  0  0  0  0  0  0  0
  -10.5449   15.0292  -29.3665 N   0  0  0  0  0  0  0  0  0  0  0  0
  -11.4821   15.5550  -28.5536 C   0  0  0  0  0  0  0  0  0  0  0  0
  -11.5023   16.9502  -28.3392 N   0  0  0  0  0  0  0  0  0  0  0  0
  -10.7199   17.7880  -29.1925 C   0  0  0  0  0  0  0  0  0  0  0  0
  -10.0090   18.8294  -28.6292 C   0  0  0  0  0  0  0  0  0  0  0  0
   -9.2411   19.6202  -29.4432 C   0  0  0  0  0  0  0  0  0  0  0  0
   -9.1444   19.4290  -30.7881 C   0  0  0  0  0  0  0  0  0  0  0  0
   -8.4133   20.1611  -31.6339 O   0  0  0  0  0  0  0  0  0  0  0  0
   -7.6654   21.2732  -31.5734 C   0  0  0  0  0  0  0  0  0  0  0  0
   -6.2208   21.1303  -31.8478 C   0  0  0  0  0  0  0  0  0  0  0  0
   -5.2620   21.8052  -31.1651 C   0  0  0  0  0  0  0  0  0  0  0  0
   -3.9321   21.6183  -31.5052 C   0  0  0  0  0  0  0  0  0  0  0  0
   -3.5577   20.7700  -32.5126 C   0  0  0  0  0  0  0  0  0  0  0  0
   -4.5609   20.1006  -33.1841 C   0  0  0  0  0  0  0  0  0  0  0  0
   -4.2221   19.2504  -34.1902 F   0  0  0  0  0  0  0  0  0  0  0  0
   -5.8839   20.2616  -32.8745 C   0  0  0  0  0  0  0  0  0  0  0  0
   -9.8788   18.3579  -31.3486 C   0  0  0  0  0  0  0  0  0  0  0  0
   -9.7941   18.0612  -33.0805 Cl  0  0  0  0  0  0  0  0  0  0  0  0
  -10.6405   17.5722  -30.5469 C   0  0  0  0  0  0  0  0  0  0  0  0
  -12.4133   14.7386  -27.9732 C   0  0  0  0  0  0  0  0  0  0  0  0
  -13.4009   15.1829  -27.1292 C   0  0  0  0  0  0  0  0  0  0  0  0
  -14.3493   14.3705  -26.5350 C   0  0  0  0  0  0  0  0  0  0  0  0
  -15.3408   14.7866  -25.6949 O   0  0  0  0  0  0  0  0  0  0  0  0
  -15.2575   15.5885  -24.5834 C   0  0  0  0  0  0  0  0  0  0  0  0
  -16.4509   15.6426  -23.6931 C   0  0  0  0  0  0  0  0  0  0  0  0
  -16.1241   16.5348  -22.4973 C   0  0  0  0  0  0  0  0  0  0  0  0
  -16.8535   17.7778  -22.5153 N   0  0  2  0  0  4  0  0  0  0  0  0
  -15.8092   18.8273  -22.4495 C   0  0  0  0  0  0  0  0  0  0  0  0
  -16.1516   20.0403  -21.6392 C   0  0  0  0  0  0  0  0  0  0  0  0
  -16.1332   20.0024  -20.2492 N   0  0  0  0  0  0  0  0  0  0  0  0
  -17.2737   20.0511  -19.4231 C   0  0  0  0  0  0  0  0  0  0  0  0
  -17.8793   18.7924  -18.9202 C   0  0  0  0  0  0  0  0  0  0  0  0
  -19.0179   18.2394  -19.6013 N   0  0  0  0  0  4  0  0  0  0  0  0
  -18.6791   17.3374  -20.7366 C   0  0  0  0  0  0  0  0  0  0  0  0
  -17.5095   18.0140  -21.2849 C   0  0  0  0  0  0  0  0  0  0  0  0
  1  2  1  0
  2  3  1  0
  3  4  2  0
  4  5  1  0
  5  6  2  0
  6  7  1  0
  7  8  2  0
  8  9  1  0
  9 10  1  0
 10 11  1  0
 11 12  2  0
 12 13  1  0
 13 14  2  0
 14 15  1  0
 15 16  1  0
 16 17  1  0
 17 18  2  0
 18 19  1  0
 19 20  2  0
 20 21  1  0
 21 22  1  0
 21 23  2  0
 14 24  1  0
 24 25  1  0
 24 26  2  0
  9 27  2  0
 27 28  1  0
 28 29  2  0
 29 30  1  0
 30 31  1  0
 31 32  1  0
 32 33  1  0
 34 33  1  1
 34 35  1  0
 35 36  1  0
 36 37  1  0
 37 38  1  0
 38 39  1  0
 39 40  1  0
 40 41  1  0
 41 42  1  0
 29  3  1  0
 42 34  1  0
 27  5  1  0
 26 11  1  0
 23 17  1  0
M  CHG  2  34   1  40   1
M  END
$$$$
CHEMBL4439338_diffdock_4
     RDKit          3D

 42 46  0  0  0  0  0  0  0  0999 V2000
  -15.4257   10.6599  -26.3201 C   0  0  0  0  0  0  0  0  0  0  0  0
  -15.3627   12.0661  -26.1580 O   0  0  0  0  0  0  0  0  0  0  0  0
  -14.4113   12.8523  -26.7491 C   0  0  0  0  0  0  0  0  0  0  0  0
  -13.5076   12.3284  -27.6233 C   0  0  0  0  0  0  0  0  0  0  0  0
  -12.5290   13.0683  -28.2491 C   0  0  0  0  0  0  0  0  0  0  0  0
  -11.6545   12.4856  -29.1099 N   0  0  0  0  0  0  0  0  0  0  0  0
  -10.7239   13.2596  -29.6846 C   0  0  0  0  0  0  0  0  0  0  0  0
  -10.6452   14.5602  -29.4325 N   0  0  0  0  0  0  0  0  0  0  0  0
  -11.4996   15.1640  -28.5834 C   0  0  0  0  0  0  0  0  0  0  0  0
  -11.3920   16.5558  -28.3734 N   0  0  0  0  0  0  0  0  0  0  0  0
  -10.7352   17.3513  -29.3623 C   0  0  0  0  0  0  0  0  0  0  0  0
  -10.0012   18.4467  -28.9522 C   0  0  0  0  0  0  0  0  0  0  0  0
   -9.3529   19.1978  -29.8974 C   0  0  0  0  0  0  0  0  0  0  0  0
   -9.3978   18.9157  -31.2290 C   0  0  0  0  0  0  0  0  0  0  0  0
   -8.7877   19.6051  -32.1978 O   0  0  0  0  0  0  0  0  0  0  0  0
   -7.6970   20.3777  -32.3132 C   0  0  0  0  0  0  0  0  0  0  0  0
   -6.3870   19.6953  -32.3421 C   0  0  0  0  0  0  0  0  0  0  0  0
   -5.2528   20.2371  -31.8313 C   0  0  0  0  0  0  0  0  0  0  0  0
   -4.0660   19.5280  -31.9195 C   0  0  0  0  0  0  0  0  0  0  0  0
   -4.0056   18.2934  -32.5084 C   0  0  0  0  0  0  0  0  0  0  0  0
   -5.1797   17.7745  -33.0161 C   0  0  0  0  0  0  0  0  0  0  0  0
   -5.1535   16.5500  -33.6074 F   0  0  0  0  0  0  0  0  0  0  0  0
   -6.3690   18.4475  -32.9463 C   0  0  0  0  0  0  0  0  0  0  0  0
  -10.1540   17.7902  -31.6318 C   0  0  0  0  0  0  0  0  0  0  0  0
  -10.2496   17.3757  -33.3387 Cl  0  0  0  0  0  0  0  0  0  0  0  0
  -10.7975   17.0436  -30.6998 C   0  0  0  0  0  0  0  0  0  0  0  0
  -12.4720   14.4298  -27.9620 C   0  0  0  0  0  0  0  0  0  0  0  0
  -13.3823   14.9567  -27.0794 C   0  0  0  0  0  0  0  0  0  0  0  0
  -14.3709   14.2282  -26.4436 C   0  0  0  0  0  0  0  0  0  0  0  0
  -15.2876   14.7273  -25.5647 O   0  0  0  0  0  0  0  0  0  0  0  0
  -15.1073   15.1590  -24.2737 C   0  0  0  0  0  0  0  0  0  0  0  0
  -16.3173   15.6170  -23.5347 C   0  0  0  0  0  0  0  0  0  0  0  0
  -16.8019   16.9236  -24.1597 C   0  0  0  0  0  0  0  0  0  0  0  0
  -18.1855   17.2006  -23.8664 N   0  0  2  0  0  4  0  0  0  0  0  0
  -18.5602   18.2816  -24.8083 C   0  0  0  0  0  0  0  0  0  0  0  0
  -19.4984   19.3197  -24.2722 C   0  0  0  0  0  0  0  0  0  0  0  0
  -19.0539   20.3033  -23.3954 N   0  0  0  0  0  0  0  0  0  0  0  0
  -19.3833   20.3770  -22.0274 C   0  0  0  0  0  0  0  0  0  0  0  0
  -18.4647   19.8042  -21.0116 C   0  0  0  0  0  0  0  0  0  0  0  0
  -18.7282   18.4924  -20.4861 N   0  0  0  0  0  4  0  0  0  0  0  0
  -18.1464   17.3795  -21.2862 C   0  0  0  0  0  0  0  0  0  0  0  0
  -18.3296   17.8898  -22.6399 C   0  0  0  0  0  0  0  0  0  0  0  0
  1  2  1  0
  2  3  1  0
  3  4  2  0
  4  5  1  0
  5  6  2  0
  6  7  1  0
  7  8  2  0
  8  9  1  0
  9 10  1  0
 10 11  1  0
 11 12  2  0
 12 13  1  0
 13 14  2  0
 14 15  1  0
 15 16  1  0
 16 17  1  0
 17 18  2  0
 18 19  1  0
 19 20  2  0
 20 21  1  0
 21 22  1  0
 21 23  2  0
 14 24  1  0
 24 25  1  0
 24 26  2  0
  9 27  2  0
 27 28  1  0
 28 29  2  0
 29 30  1  0
 30 31  1  0
 31 32  1  0
 32 33  1  0
 34 33  1  6
 34 35  1  0
 35 36  1  0
 36 37  1  0
 37 38  1  0
 38 39  1  0
 39 40  1  0
 40 41  1  0
 41 42  1  0
 29  3  1  0
 42 34  1  0
 27  5  1  0
 26 11  1  0
 23 17  1  0
M  CHG  2  34   1  40   1
M  END
$$$$
CHEMBL4439338_diffdock_5
     RDKit          3D

 42 46  0  0  0  0  0  0  0  0999 V2000
  -15.2308   10.8359  -26.9146 C   0  0  0  0  0  0  0  0  0  0  0  0
  -14.9442   12.1608  -26.5024 O   0  0  0  0  0  0  0  0  0  0  0  0
  -13.9638   12.9315  -27.0661 C   0  0  0  0  0  0  0  0  0  0  0  0
  -12.9665   12.3727  -27.8066 C   0  0  0  0  0  0  0  0  0  0  0  0
  -11.9545   13.0955  -28.3984 C   0  0  0  0  0  0  0  0  0  0  0  0
  -10.9857   12.4782  -29.1234 N   0  0  0  0  0  0  0  0  0  0  0  0
  -10.0273   13.2373  -29.6717 C   0  0  0  0  0  0  0  0  0  0  0  0
  -10.0103   14.5557  -29.5220 N   0  0  0  0  0  0  0  0  0  0  0  0
  -10.9586   15.1938  -28.8084 C   0  0  0  0  0  0  0  0  0  0  0  0
  -10.9114   16.6010  -28.7053 N   0  0  0  0  0  0  0  0  0  0  0  0
  -10.0210   17.3231  -29.5584 C   0  0  0  0  0  0  0  0  0  0  0  0
   -9.3209   18.3918  -29.0343 C   0  0  0  0  0  0  0  0  0  0  0  0
   -8.4504   19.0717  -29.8453 C   0  0  0  0  0  0  0  0  0  0  0  0
   -8.2411   18.7438  -31.1505 C   0  0  0  0  0  0  0  0  0  0  0  0
   -7.4068   19.3633  -31.9908 O   0  0  0  0  0  0  0  0  0  0  0  0
   -6.5205   20.3684  -31.9286 C   0  0  0  0  0  0  0  0  0  0  0  0
   -7.0336   21.7352  -32.1551 C   0  0  0  0  0  0  0  0  0  0  0  0
   -6.3502   22.8548  -31.8087 C   0  0  0  0  0  0  0  0  0  0  0  0
   -6.9203   24.0950  -32.0459 C   0  0  0  0  0  0  0  0  0  0  0  0
   -8.1560   24.2224  -32.6214 C   0  0  0  0  0  0  0  0  0  0  0  0
   -8.8208   23.0612  -32.9606 C   0  0  0  0  0  0  0  0  0  0  0  0
  -10.0506   23.1535  -33.5342 F   0  0  0  0  0  0  0  0  0  0  0  0
   -8.2876   21.8204  -32.7404 C   0  0  0  0  0  0  0  0  0  0  0  0
   -8.9662   17.6466  -31.6712 C   0  0  0  0  0  0  0  0  0  0  0  0
   -8.7384   17.1755  -33.3507 Cl  0  0  0  0  0  0  0  0  0  0  0  0
   -9.8291   16.9704  -30.8723 C   0  0  0  0  0  0  0  0  0  0  0  0
  -11.9642   14.4767  -28.2209 C   0  0  0  0  0  0  0  0  0  0  0  0
  -12.9689   15.0389  -27.4729 C   0  0  0  0  0  0  0  0  0  0  0  0
  -13.9922   14.3279  -26.8731 C   0  0  0  0  0  0  0  0  0  0  0  0
  -15.0023   14.8618  -26.1270 O   0  0  0  0  0  0  0  0  0  0  0  0
  -14.9611   15.8925  -25.2207 C   0  0  0  0  0  0  0  0  0  0  0  0
  -16.2176   16.6658  -25.0128 C   0  0  0  0  0  0  0  0  0  0  0  0
  -15.9652   17.7218  -23.9387 C   0  0  0  0  0  0  0  0  0  0  0  0
  -16.4623   17.3281  -22.6444 N   0  0  2  0  0  4  0  0  0  0  0  0
  -17.9182   17.5990  -22.7027 C   0  0  0  0  0  0  0  0  0  0  0  0
  -18.5390   18.1112  -21.4387 C   0  0  0  0  0  0  0  0  0  0  0  0
  -18.3586   19.4295  -21.0346 N   0  0  0  0  0  0  0  0  0  0  0  0
  -17.5809   19.8392  -19.9333 C   0  0  0  0  0  0  0  0  0  0  0  0
  -16.1740   20.2672  -20.1374 C   0  0  0  0  0  0  0  0  0  0  0  0
  -15.1120   19.3294  -19.8947 N   0  0  0  0  0  4  0  0  0  0  0  0
  -14.7659   18.4740  -21.0633 C   0  0  0  0  0  0  0  0  0  0  0  0
  -16.0863   18.2502  -21.6401 C   0  0  0  0  0  0  0  0  0  0  0  0
  1  2  1  0
  2  3  1  0
  3  4  2  0
  4  5  1  0
  5  6  2  0
  6  7  1  0
  7  8  2  0
  8  9  1  0
  9 10  1  0
 10 11  1  0
 11 12  2  0
 12 13  1  0
 13 14  2  0
 14 15  1  0
 15 16  1  0
 16 17  1  0
 17 18  2  0
 18 19  1  0
 19 20  2  0
 20 21  1  0
 21 22  1  0
 21 23  2  0
 14 24  1  0
 24 25  1  0
 24 26  2  0
  9 27  2  0
 27 28  1  0
 28 29  2  0
 29 30  1  0
 30 31  1  0
 31 32  1  0
 32 33  1  0
 34 33  1  6
 34 35  1  0
 35 36  1  0
 36 37  1  0
 37 38  1  0
 38 39  1  0
 39 40  1  0
 40 41  1  0
 41 42  1  0
 29  3  1  0
 42 34  1  0
 27  5  1  0
 26 11  1  0
 23 17  1  0
M  CHG  2  34   1  40   1
M  END
$$$$
CHEMBL4439338_diffdock_6
     RDKit          3D

 42 46  0  0  0  0  0  0  0  0999 V2000
  -15.3714   10.8039  -26.3779 C   0  0  0  0  0  0  0  0  0  0  0  0
  -14.8813   11.9961  -25.7896 O   0  0  0  0  0  0  0  0  0  0  0  0
  -13.9612   12.8116  -26.3905 C   0  0  0  0  0  0  0  0  0  0  0  0
  -12.9734   12.3005  -27.1768 C   0  0  0  0  0  0  0  0  0  0  0  0
  -12.0208   13.0698  -27.8074 C   0  0  0  0  0  0  0  0  0  0  0  0
  -11.0583   12.4988  -28.5773 N   0  0  0  0  0  0  0  0  0  0  0  0
  -10.1588   13.3018  -29.1620 C   0  0  0  0  0  0  0  0  0  0  0  0
  -10.1934   14.6191  -29.0052 N   0  0  0  0  0  0  0  0  0  0  0  0
  -11.1369   15.2117  -28.2473 C   0  0  0  0  0  0  0  0  0  0  0  0
  -11.1472   16.6191  -28.1379 N   0  0  0  0  0  0  0  0  0  0  0  0
  -10.1880   17.3734  -28.8816 C   0  0  0  0  0  0  0  0  0  0  0  0
   -9.4270   18.3161  -28.2188 C   0  0  0  0  0  0  0  0  0  0  0  0
   -8.4916   19.0248  -28.9262 C   0  0  0  0  0  0  0  0  0  0  0  0
   -8.2747   18.8445  -30.2586 C   0  0  0  0  0  0  0  0  0  0  0  0
   -7.3789   19.4997  -31.0031 O   0  0  0  0  0  0  0  0  0  0  0  0
   -6.2965   20.2627  -30.7886 C   0  0  0  0  0  0  0  0  0  0  0  0
   -5.7298   20.9723  -31.9540 C   0  0  0  0  0  0  0  0  0  0  0  0
   -4.6219   21.7523  -31.8853 C   0  0  0  0  0  0  0  0  0  0  0  0
   -4.1739   22.3921  -33.0295 C   0  0  0  0  0  0  0  0  0  0  0  0
   -4.8189   22.2588  -34.2297 C   0  0  0  0  0  0  0  0  0  0  0  0
   -5.9420   21.4568  -34.2609 C   0  0  0  0  0  0  0  0  0  0  0  0
   -6.6057   21.3035  -35.4381 F   0  0  0  0  0  0  0  0  0  0  0  0
   -6.4121   20.8105  -33.1502 C   0  0  0  0  0  0  0  0  0  0  0  0
   -9.0625   17.8750  -30.9219 C   0  0  0  0  0  0  0  0  0  0  0  0
   -8.8282   17.5974  -32.6431 Cl  0  0  0  0  0  0  0  0  0  0  0  0
   -9.9899   17.1709  -30.2259 C   0  0  0  0  0  0  0  0  0  0  0  0
  -12.0835   14.4485  -27.6213 C   0  0  0  0  0  0  0  0  0  0  0  0
  -13.0785   14.9626  -26.8272 C   0  0  0  0  0  0  0  0  0  0  0  0
  -14.0426   14.2046  -26.1879 C   0  0  0  0  0  0  0  0  0  0  0  0
  -15.0417   14.6903  -25.3957 O   0  0  0  0  0  0  0  0  0  0  0  0
  -15.0222   15.7540  -24.5277 C   0  0  0  0  0  0  0  0  0  0  0  0
  -15.7036   17.0037  -24.9683 C   0  0  0  0  0  0  0  0  0  0  0  0
  -15.7290   17.9817  -23.7955 C   0  0  0  0  0  0  0  0  0  0  0  0
  -16.3221   17.4140  -22.6109 N   0  0  2  0  0  4  0  0  0  0  0  0
  -17.7566   17.7759  -22.6984 C   0  0  0  0  0  0  0  0  0  0  0  0
  -18.4261   18.1127  -21.4009 C   0  0  0  0  0  0  0  0  0  0  0  0
  -18.2051   19.3354  -20.7764 N   0  0  0  0  0  0  0  0  0  0  0  0
  -17.4757   19.5152  -19.5843 C   0  0  0  0  0  0  0  0  0  0  0  0
  -16.0397   19.8870  -19.6426 C   0  0  0  0  0  0  0  0  0  0  0  0
  -15.0421   18.8614  -19.5035 N   0  0  0  0  0  4  0  0  0  0  0  0
  -14.6691   18.1873  -20.7777 C   0  0  0  0  0  0  0  0  0  0  0  0
  -15.9619   18.1378  -21.4505 C   0  0  0  0  0  0  0  0  0  0  0  0
  1  2  1  0
  2  3  1  0
  3  4  2  0
  4  5  1  0
  5  6  2  0
  6  7  1  0
  7  8  2  0
  8  9  1  0
  9 10  1  0
 10 11  1  0
 11 12  2  0
 12 13  1  0
 13 14  2  0
 14 15  1  0
 15 16  1  0
 16 17  1  0
 17 18  2  0
 18 19  1  0
 19 20  2  0
 20 21  1  0
 21 22  1  0
 21 23  2  0
 14 24  1  0
 24 25  1  0
 24 26  2  0
  9 27  2  0
 27 28  1  0
 28 29  2  0
 29 30  1  0
 30 31  1  0
 31 32  1  0
 32 33  1  0
 34 33  1  6
 34 35  1  0
 35 36  1  0
 36 37  1  0
 37 38  1  0
 38 39  1  0
 39 40  1  0
 40 41  1  0
 41 42  1  0
 29  3  1  0
 42 34  1  0
 27  5  1  0
 26 11  1  0
 23 17  1  0
M  CHG  2  34   1  40   1
M  END
$$$$
CHEMBL4439338_diffdock_7
     RDKit          3D

 42 46  0  0  0  0  0  0  0  0999 V2000
  -15.5992   10.5548  -26.9865 C   0  0  0  0  0  0  0  0  0  0  0  0
  -15.4445   11.9091  -26.6001 O   0  0  0  0  0  0  0  0  0  0  0  0
  -14.4734   12.7316  -27.1033 C   0  0  0  0  0  0  0  0  0  0  0  0
  -13.6138   12.2995  -28.0675 C   0  0  0  0  0  0  0  0  0  0  0  0
  -12.6184   13.0800  -28.6123 C   0  0  0  0  0  0  0  0  0  0  0  0
  -11.7901   12.5889  -29.5705 N   0  0  0  0  0  0  0  0  0  0  0  0
  -10.8399   13.3979  -30.0586 C   0  0  0  0  0  0  0  0  0  0  0  0
  -10.6986   14.6461  -29.6305 N   0  0  0  0  0  0  0  0  0  0  0  0
  -11.5062   15.1587  -28.6814 C   0  0  0  0  0  0  0  0  0  0  0  0
  -11.3330   16.5019  -28.2831 N   0  0  0  0  0  0  0  0  0  0  0  0
  -10.2713   17.2602  -28.8662 C   0  0  0  0  0  0  0  0  0  0  0  0
   -9.4413   17.9870  -28.0356 C   0  0  0  0  0  0  0  0  0  0  0  0
   -8.4095   18.6971  -28.5912 C   0  0  0  0  0  0  0  0  0  0  0  0
   -8.1613   18.7221  -29.9301 C   0  0  0  0  0  0  0  0  0  0  0  0
   -7.1731   19.3905  -30.5324 O   0  0  0  0  0  0  0  0  0  0  0  0
   -6.4674   20.5090  -30.3077 C   0  0  0  0  0  0  0  0  0  0  0  0
   -6.1557   21.3562  -31.4773 C   0  0  0  0  0  0  0  0  0  0  0  0
   -6.7641   22.5443  -31.7204 C   0  0  0  0  0  0  0  0  0  0  0  0
   -6.4171   23.2618  -32.8536 C   0  0  0  0  0  0  0  0  0  0  0  0
   -5.4756   22.8046  -33.7363 C   0  0  0  0  0  0  0  0  0  0  0  0
   -4.8780   21.5924  -33.4554 C   0  0  0  0  0  0  0  0  0  0  0  0
   -3.9385   21.1105  -34.3126 F   0  0  0  0  0  0  0  0  0  0  0  0
   -5.1967   20.8579  -32.3459 C   0  0  0  0  0  0  0  0  0  0  0  0
   -9.0209   17.9721  -30.7664 C   0  0  0  0  0  0  0  0  0  0  0  0
   -8.7506   17.9655  -32.5046 Cl  0  0  0  0  0  0  0  0  0  0  0  0
  -10.0437   17.2674  -30.2210 C   0  0  0  0  0  0  0  0  0  0  0  0
  -12.4953   14.3844  -28.1404 C   0  0  0  0  0  0  0  0  0  0  0  0
  -13.3611   14.8186  -27.1673 C   0  0  0  0  0  0  0  0  0  0  0  0
  -14.3659   14.0483  -26.6107 C   0  0  0  0  0  0  0  0  0  0  0  0
  -15.2394   14.4557  -25.6450 O   0  0  0  0  0  0  0  0  0  0  0  0
  -15.8432   15.6779  -25.4798 C   0  0  0  0  0  0  0  0  0  0  0  0
  -17.2198   15.6848  -24.9098 C   0  0  0  0  0  0  0  0  0  0  0  0
  -17.5195   17.0864  -24.3822 C   0  0  0  0  0  0  0  0  0  0  0  0
  -17.5431   17.1450  -22.9423 N   0  0  2  0  0  4  0  0  0  0  0  0
  -18.8596   16.5788  -22.5647 C   0  0  0  0  0  0  0  0  0  0  0  0
  -19.5352   17.2211  -21.3915 C   0  0  0  0  0  0  0  0  0  0  0  0
  -20.1560   18.4596  -21.5116 N   0  0  0  0  0  0  0  0  0  0  0  0
  -19.6847   19.6598  -20.9433 C   0  0  0  0  0  0  0  0  0  0  0  0
  -18.8582   20.5894  -21.7536 C   0  0  0  0  0  0  0  0  0  0  0  0
  -17.4273   20.5552  -21.6209 N   0  0  0  0  0  4  0  0  0  0  0  0
  -16.7494   19.5679  -22.5056 C   0  0  0  0  0  0  0  0  0  0  0  0
  -17.7094   18.4705  -22.4781 C   0  0  0  0  0  0  0  0  0  0  0  0
  1  2  1  0
  2  3  1  0
  3  4  2  0
  4  5  1  0
  5  6  2  0
  6  7  1  0
  7  8  2  0
  8  9  1  0
  9 10  1  0
 10 11  1  0
 11 12  2  0
 12 13  1  0
 13 14  2  0
 14 15  1  0
 15 16  1  0
 16 17  1  0
 17 18  2  0
 18 19  1  0
 19 20  2  0
 20 21  1  0
 21 22  1  0
 21 23  2  0
 14 24  1  0
 24 25  1  0
 24 26  2  0
  9 27  2  0
 27 28  1  0
 28 29  2  0
 29 30  1  0
 30 31  1  0
 31 32  1  0
 32 33  1  0
 34 33  1  6
 34 35  1  0
 35 36  1  0
 36 37  1  0
 37 38  1  0
 38 39  1  0
 39 40  1  0
 40 41  1  0
 41 42  1  0
 29  3  1  0
 42 34  1  0
 27  5  1  0
 26 11  1  0
 23 17  1  0
M  CHG  2  34   1  40   1
M  END
$$$$
CHEMBL4439338_diffdock_8
     RDKit          3D

 42 46  0  0  0  0  0  0  0  0999 V2000
  -16.1314   11.2903  -26.7867 C   0  0  0  0  0  0  0  0  0  0  0  0
  -16.0146   12.6918  -26.6136 O   0  0  0  0  0  0  0  0  0  0  0  0
  -14.9718   13.4289  -27.1057 C   0  0  0  0  0  0  0  0  0  0  0  0
  -13.9277   12.8329  -27.7460 C   0  0  0  0  0  0  0  0  0  0  0  0
  -12.8521   13.5209  -28.2623 C   0  0  0  0  0  0  0  0  0  0  0  0
  -11.8391   12.8674  -28.8884 N   0  0  0  0  0  0  0  0  0  0  0  0
  -10.8197   13.5938  -29.3668 C   0  0  0  0  0  0  0  0  0  0  0  0
  -10.7852   14.9145  -29.2425 N   0  0  0  0  0  0  0  0  0  0  0  0
  -11.7763   15.5881  -28.6263 C   0  0  0  0  0  0  0  0  0  0  0  0
  -11.7057   16.9958  -28.5476 N   0  0  0  0  0  0  0  0  0  0  0  0
  -10.6456   17.6699  -29.2286 C   0  0  0  0  0  0  0  0  0  0  0  0
  -10.9637   18.6708  -30.1253 C   0  0  0  0  0  0  0  0  0  0  0  0
   -9.9474   19.3329  -30.7628 C   0  0  0  0  0  0  0  0  0  0  0  0
   -8.6315   19.0504  -30.5547 C   0  0  0  0  0  0  0  0  0  0  0  0
   -7.5963   19.6592  -31.1411 O   0  0  0  0  0  0  0  0  0  0  0  0
   -7.4146   20.5630  -32.1157 C   0  0  0  0  0  0  0  0  0  0  0  0
   -7.4268   20.0663  -33.5070 C   0  0  0  0  0  0  0  0  0  0  0  0
   -6.4574   20.3568  -34.4107 C   0  0  0  0  0  0  0  0  0  0  0  0
   -6.5631   19.8583  -35.6989 C   0  0  0  0  0  0  0  0  0  0  0  0
   -7.6203   19.0791  -36.0861 C   0  0  0  0  0  0  0  0  0  0  0  0
   -8.5865   18.8045  -35.1393 C   0  0  0  0  0  0  0  0  0  0  0  0
   -9.6496   18.0331  -35.4921 F   0  0  0  0  0  0  0  0  0  0  0  0
   -8.5136   19.2805  -33.8585 C   0  0  0  0  0  0  0  0  0  0  0  0
   -8.3232   18.0227  -29.6331 C   0  0  0  0  0  0  0  0  0  0  0  0
   -6.6411   17.6123  -29.3228 Cl  0  0  0  0  0  0  0  0  0  0  0  0
   -9.3259   17.3643  -28.9995 C   0  0  0  0  0  0  0  0  0  0  0  0
  -12.8450   14.9056  -28.1138 C   0  0  0  0  0  0  0  0  0  0  0  0
  -13.8971   15.5052  -27.4669 C   0  0  0  0  0  0  0  0  0  0  0  0
  -14.9844   14.8294  -26.9437 C   0  0  0  0  0  0  0  0  0  0  0  0
  -16.0422   15.4009  -26.2985 O   0  0  0  0  0  0  0  0  0  0  0  0
  -16.2421   15.5847  -24.9525 C   0  0  0  0  0  0  0  0  0  0  0  0
  -17.4691   16.3235  -24.5420 C   0  0  0  0  0  0  0  0  0  0  0  0
  -17.5077   16.3904  -23.0166 C   0  0  0  0  0  0  0  0  0  0  0  0
  -16.8346   17.5527  -22.4940 N   0  0  2  0  0  4  0  0  0  0  0  0
  -16.0262   17.0414  -21.3619 C   0  0  0  0  0  0  0  0  0  0  0  0
  -15.9227   17.9457  -20.1716 C   0  0  0  0  0  0  0  0  0  0  0  0
  -16.9850   18.0888  -19.2857 N   0  0  0  0  0  0  0  0  0  0  0  0
  -17.7796   19.2451  -19.1549 C   0  0  0  0  0  0  0  0  0  0  0  0
  -19.0679   19.3460  -19.8857 C   0  0  0  0  0  0  0  0  0  0  0  0
  -19.1162   20.0665  -21.1286 N   0  0  0  0  0  4  0  0  0  0  0  0
  -18.7787   19.2508  -22.3277 C   0  0  0  0  0  0  0  0  0  0  0  0
  -17.7249   18.3975  -21.7912 C   0  0  0  0  0  0  0  0  0  0  0  0
  1  2  1  0
  2  3  1  0
  3  4  2  0
  4  5  1  0
  5  6  2  0
  6  7  1  0
  7  8  2  0
  8  9  1  0
  9 10  1  0
 10 11  1  0
 11 12  2  0
 12 13  1  0
 13 14  2  0
 14 15  1  0
 15 16  1  0
 16 17  1  0
 17 18  2  0
 18 19  1  0
 19 20  2  0
 20 21  1  0
 21 22  1  0
 21 23  2  0
 14 24  1  0
 24 25  1  0
 24 26  2  0
  9 27  2  0
 27 28  1  0
 28 29  2  0
 29 30  1  0
 30 31  1  0
 31 32  1  0
 32 33  1  0
 34 33  1  1
 34 35  1  0
 35 36  1  0
 36 37  1  0
 37 38  1  0
 38 39  1  0
 39 40  1  0
 40 41  1  0
 41 42  1  0
 29  3  1  0
 42 34  1  0
 27  5  1  0
 26 11  1  0
 23 17  1  0
M  CHG  2  34   1  40   1
M  END
$$$$
CHEMBL4439338_diffdock_9
     RDKit          3D

 42 46  0  0  0  0  0  0  0  0999 V2000
  -16.2831   11.3328  -27.8732 C   0  0  0  0  0  0  0  0  0  0  0  0
  -15.8163   12.4357  -27.1161 O   0  0  0  0  0  0  0  0  0  0  0  0
  -14.7932   13.2498  -27.5201 C   0  0  0  0  0  0  0  0  0  0  0  0
  -13.8480   12.8115  -28.3975 C   0  0  0  0  0  0  0  0  0  0  0  0
  -12.7971   13.5835  -28.8406 C   0  0  0  0  0  0  0  0  0  0  0  0
  -11.8843   13.0866  -29.7153 N   0  0  0  0  0  0  0  0  0  0  0  0
  -10.8836   13.8874  -30.1062 C   0  0  0  0  0  0  0  0  0  0  0  0
  -10.7728   15.1332  -29.6626 N   0  0  0  0  0  0  0  0  0  0  0  0
  -11.6639   15.6516  -28.7949 C   0  0  0  0  0  0  0  0  0  0  0  0
  -11.5176   16.9922  -28.3775 N   0  0  0  0  0  0  0  0  0  0  0  0
  -10.4446   17.7667  -28.9168 C   0  0  0  0  0  0  0  0  0  0  0  0
  -10.7112   19.0426  -29.3728 C   0  0  0  0  0  0  0  0  0  0  0  0
   -9.6792   19.7945  -29.8701 C   0  0  0  0  0  0  0  0  0  0  0  0
   -8.3963   19.3425  -29.9379 C   0  0  0  0  0  0  0  0  0  0  0  0
   -7.3480   20.0251  -30.4080 O   0  0  0  0  0  0  0  0  0  0  0  0
   -7.1472   21.1207  -31.1556 C   0  0  0  0  0  0  0  0  0  0  0  0
   -6.3844   20.9513  -32.4095 C   0  0  0  0  0  0  0  0  0  0  0  0
   -5.3251   20.1122  -32.5299 C   0  0  0  0  0  0  0  0  0  0  0  0
   -4.6608   20.0325  -33.7431 C   0  0  0  0  0  0  0  0  0  0  0  0
   -5.0442   20.7779  -34.8255 C   0  0  0  0  0  0  0  0  0  0  0  0
   -6.1264   21.6198  -34.6651 C   0  0  0  0  0  0  0  0  0  0  0  0
   -6.5326   22.3739  -35.7216 F   0  0  0  0  0  0  0  0  0  0  0  0
   -6.8052   21.7233  -33.4816 C   0  0  0  0  0  0  0  0  0  0  0  0
   -8.1407   18.0336  -29.4665 C   0  0  0  0  0  0  0  0  0  0  0  0
   -6.5031   17.3942  -29.5284 Cl  0  0  0  0  0  0  0  0  0  0  0  0
   -9.1590   17.2853  -28.9732 C   0  0  0  0  0  0  0  0  0  0  0  0
  -12.7081   14.8857  -28.3549 C   0  0  0  0  0  0  0  0  0  0  0  0
  -13.6603   15.3261  -27.4692 C   0  0  0  0  0  0  0  0  0  0  0  0
  -14.7216   14.5644  -27.0153 C   0  0  0  0  0  0  0  0  0  0  0  0
  -15.6810   14.9781  -26.1377 O   0  0  0  0  0  0  0  0  0  0  0  0
  -15.5829   15.8765  -25.1038 C   0  0  0  0  0  0  0  0  0  0  0  0
  -16.6708   16.8863  -24.9750 C   0  0  0  0  0  0  0  0  0  0  0  0
  -17.8124   16.2696  -24.1693 C   0  0  0  0  0  0  0  0  0  0  0  0
  -17.7524   16.6099  -22.7701 N   0  0  2  0  0  4  0  0  0  0  0  0
  -18.3219   15.4329  -22.0723 C   0  0  0  0  0  0  0  0  0  0  0  0
  -19.1556   15.7300  -20.8632 C   0  0  0  0  0  0  0  0  0  0  0  0
  -20.4503   16.2218  -20.9886 N   0  0  0  0  0  0  0  0  0  0  0  0
  -20.8534   17.5321  -20.6629 C   0  0  0  0  0  0  0  0  0  0  0  0
  -20.9246   18.5706  -21.7214 C   0  0  0  0  0  0  0  0  0  0  0  0
  -19.8295   19.4881  -21.8804 N   0  0  0  0  0  4  0  0  0  0  0  0
  -18.7409   19.0003  -22.7716 C   0  0  0  0  0  0  0  0  0  0  0  0
  -18.7206   17.5830  -22.4293 C   0  0  0  0  0  0  0  0  0  0  0  0
  1  2  1  0
  2  3  1  0
  3  4  2  0
  4  5  1  0
  5  6  2  0
  6  7  1  0
  7  8  2  0
  8  9  1  0
  9 10  1  0
 10 11  1  0
 11 12  2  0
 12 13  1  0
 13 14  2  0
 14 15  1  0
 15 16  1  0
 16 17  1  0
 17 18  2  0
 18 19  1  0
 19 20  2  0
 20 21  1  0
 21 22  1  0
 21 23  2  0
 14 24  1  0
 24 25  1  0
 24 26  2  0
  9 27  2  0
 27 28  1  0
 28 29  2  0
 29 30  1  0
 30 31  1  0
 31 32  1  0
 32 33  1  0
 34 33  1  6
 34 35  1  0
 35 36  1  0
 36 37  1  0
 37 38  1  0
 38 39  1  0
 39 40  1  0
 40 41  1  0
 41 42  1  0
 29  3  1  0
 42 34  1  0
 27  5  1  0
 26 11  1  0
 23 17  1  0
M  CHG  2  34   1  40   1
M  END
$$$$
CHEMBL4439338_diffdock_10
     RDKit          3D

 42 46  0  0  0  0  0  0  0  0999 V2000
  -14.4826   10.1773  -26.9370 C   0  0  0  0  0  0  0  0  0  0  0  0
  -14.1138   11.3382  -26.2132 O   0  0  0  0  0  0  0  0  0  0  0  0
  -13.4608   12.4020  -26.7743 C   0  0  0  0  0  0  0  0  0  0  0  0
  -12.6782   12.2461  -27.8782 C   0  0  0  0  0  0  0  0  0  0  0  0
  -11.9981   13.2774  -28.4870 C   0  0  0  0  0  0  0  0  0  0  0  0
  -11.2302   13.0564  -29.5855 N   0  0  0  0  0  0  0  0  0  0  0  0
  -10.5916   14.1012  -30.1299 C   0  0  0  0  0  0  0  0  0  0  0  0
  -10.6962   15.3236  -29.6241 N   0  0  0  0  0  0  0  0  0  0  0  0
  -11.4509   15.5711  -28.5356 C   0  0  0  0  0  0  0  0  0  0  0  0
  -11.5527   16.8949  -28.0558 N   0  0  0  0  0  0  0  0  0  0  0  0
  -10.7843   17.9177  -28.6926 C   0  0  0  0  0  0  0  0  0  0  0  0
  -10.2989   17.6878  -29.9648 C   0  0  0  0  0  0  0  0  0  0  0  0
   -9.5804   18.6760  -30.5853 C   0  0  0  0  0  0  0  0  0  0  0  0
   -9.3195   19.8803  -30.0054 C   0  0  0  0  0  0  0  0  0  0  0  0
   -8.6294   20.8833  -30.5566 O   0  0  0  0  0  0  0  0  0  0  0  0
   -7.9149   21.0833  -31.6743 C   0  0  0  0  0  0  0  0  0  0  0  0
   -6.9020   20.0643  -32.0188 C   0  0  0  0  0  0  0  0  0  0  0  0
   -6.4646   19.8462  -33.2844 C   0  0  0  0  0  0  0  0  0  0  0  0
   -5.5230   18.8559  -33.5126 C   0  0  0  0  0  0  0  0  0  0  0  0
   -5.0207   18.0901  -32.4950 C   0  0  0  0  0  0  0  0  0  0  0  0
   -5.4891   18.3413  -31.2210 C   0  0  0  0  0  0  0  0  0  0  0  0
   -5.0099   17.5979  -30.1878 F   0  0  0  0  0  0  0  0  0  0  0  0
   -6.4184   19.3111  -30.9599 C   0  0  0  0  0  0  0  0  0  0  0  0
   -9.8240   20.0992  -28.7022 C   0  0  0  0  0  0  0  0  0  0  0  0
   -9.5191   21.6354  -27.9012 Cl  0  0  0  0  0  0  0  0  0  0  0  0
  -10.5359   19.1240  -28.0839 C   0  0  0  0  0  0  0  0  0  0  0  0
  -12.1271   14.5476  -27.9309 C   0  0  0  0  0  0  0  0  0  0  0  0
  -12.9149   14.7034  -26.8172 C   0  0  0  0  0  0  0  0  0  0  0  0
  -13.6047   13.6792  -26.1946 C   0  0  0  0  0  0  0  0  0  0  0  0
  -14.3945   13.8075  -25.0893 O   0  0  0  0  0  0  0  0  0  0  0  0
  -15.7621   13.8974  -25.0049 C   0  0  0  0  0  0  0  0  0  0  0  0
  -16.3467   14.1199  -23.6526 C   0  0  0  0  0  0  0  0  0  0  0  0
  -17.8689   14.0778  -23.7693 C   0  0  0  0  0  0  0  0  0  0  0  0
  -18.4973   15.2795  -23.2810 N   0  0  2  0  0  4  0  0  0  0  0  0
  -18.3363   15.2162  -21.8091 C   0  0  0  0  0  0  0  0  0  0  0  0
  -19.4866   15.7374  -21.0026 C   0  0  0  0  0  0  0  0  0  0  0  0
  -20.6548   14.9969  -20.8585 N   0  0  0  0  0  0  0  0  0  0  0  0
  -21.8944   15.3179  -21.4466 C   0  0  0  0  0  0  0  0  0  0  0  0
  -22.2875   14.6940  -22.7351 C   0  0  0  0  0  0  0  0  0  0  0  0
  -22.0903   15.4233  -23.9580 N   0  0  0  0  0  4  0  0  0  0  0  0
  -20.7418   15.2541  -24.5663 C   0  0  0  0  0  0  0  0  0  0  0  0
  -19.9066   15.2037  -23.3721 C   0  0  0  0  0  0  0  0  0  0  0  0
  1  2  1  0
  2  3  1  0
  3  4  2  0
  4  5  1  0
  5  6  2  0
  6  7  1  0
  7  8  2  0
  8  9  1  0
  9 10  1  0
 10 11  1  0
 11 12  2  0
 12 13  1  0
 13 14  2  0
 14 15  1  0
 15 16  1  0
 16 17  1  0
 17 18  2  0
 18 19  1  0
 19 20  2  0
 20 21  1  0
 21 22  1  0
 21 23  2  0
 14 24  1  0
 24 25  1  0
 24 26  2  0
  9 27  2  0
 27 28  1  0
 28 29  2  0
 29 30  1  0
 30 31  1  0
 31 32  1  0
 32 33  1  0
 34 33  1  6
 34 35  1  0
 35 36  1  0
 36 37  1  0
 37 38  1  0
 38 39  1  0
 39 40  1  0
 40 41  1  0
 41 42  1  0
 29  3  1  0
 42 34  1  0
 27  5  1  0
 26 11  1  0
 23 17  1  0
M  CHG  2  34   1  40   1
M  END
$$$$
CHEMBL3663925_diffdock_1
     RDKit          3D

 42 46  0  0  0  0  0  0  0  0999 V2000
  -14.3578   21.1543  -21.7189 C   0  0  0  0  0  0  0  0  0  0  0  0
  -15.1385   20.0840  -21.9428 C   0  0  0  0  0  0  0  0  0  0  0  0
  -14.9823   19.3001  -23.1326 C   0  0  0  0  0  0  0  0  0  0  0  0
  -15.7518   19.6758  -24.0361 O   0  0  0  0  0  0  0  0  0  0  0  0
  -14.4134   18.3049  -23.8579 N   0  0  2  0  0  4  0  0  0  0  0  0
  -13.0190   18.6542  -24.3855 C   0  0  0  0  0  0  0  0  0  0  0  0
  -12.3689   17.3845  -24.8876 C   0  0  0  0  0  0  0  0  0  0  0  0
  -13.1764   17.0007  -26.1398 C   0  0  1  0  0  0  0  0  0  0  0  0
  -12.5042   16.1743  -27.0876 C   0  0  0  0  0  0  0  0  0  0  0  0
  -12.9156   14.8643  -27.1687 N   0  0  0  0  0  0  0  0  0  0  0  0
  -12.3921   13.9587  -28.0012 C   0  0  0  0  0  0  0  0  0  0  0  0
  -12.8885   12.6312  -28.0103 N   0  0  0  0  0  0  0  0  0  0  0  0
  -14.0534   12.2265  -27.3045 C   0  0  0  0  0  0  0  0  0  0  0  0
  -14.5609   10.9494  -27.3502 C   0  0  0  0  0  0  0  0  0  0  0  0
  -15.6927   10.5740  -26.6616 C   0  0  0  0  0  0  0  0  0  0  0  0
  -16.3914   11.4935  -25.8689 C   0  0  0  0  0  0  0  0  0  0  0  0
  -17.5685   11.0952  -25.1743 N   0  0  0  0  0  0  0  0  0  0  0  0
  -18.8684   11.4158  -25.7485 C   0  0  0  0  0  0  0  0  0  0  0  0
  -19.8518   11.7631  -24.6389 C   0  0  0  0  0  0  0  0  0  0  0  0
  -20.0782   10.4839  -23.8668 C   0  0  0  0  0  0  0  0  0  0  0  0
  -20.8407   10.7072  -22.6542 N   0  0  0  0  0  4  0  0  0  0  0  0
  -22.1326   11.3121  -22.8767 C   0  0  0  0  0  0  0  0  0  0  0  0
  -22.7273   11.6223  -21.5170 C   0  0  0  0  0  0  0  0  0  0  0  0
  -22.2464   10.8092  -20.4586 N   0  0  0  0  0  0  0  0  0  0  0  0
  -21.5176   11.4752  -19.4337 C   0  0  0  0  0  0  0  0  0  0  0  0
  -21.8026    9.5014  -20.7826 C   0  0  0  0  0  0  0  0  0  0  0  0
  -21.1294    9.3706  -22.1063 C   0  0  0  0  0  0  0  0  0  0  0  0
  -18.8518    9.6592  -23.6820 C   0  0  0  0  0  0  0  0  0  0  0  0
  -17.5532   10.3941  -23.9186 C   0  0  0  0  0  0  0  0  0  0  0  0
  -15.8891   12.7703  -25.8197 C   0  0  0  0  0  0  0  0  0  0  0  0
  -16.5895   13.7910  -24.9848 C   0  0  0  0  0  0  0  0  0  0  0  0
  -14.7310   13.1328  -26.5311 C   0  0  0  0  0  0  0  0  0  0  0  0
  -11.3719   14.3360  -28.8441 C   0  0  0  0  0  0  0  0  0  0  0  0
  -10.7574   13.3795  -29.7827 C   0  0  0  0  0  0  0  0  0  0  0  0
   -9.6289   13.7776  -30.5541 N   0  0  0  0  0  0  0  0  0  0  0  0
  -11.1863   12.2138  -29.9375 O   0  0  0  0  0  0  0  0  0  0  0  0
  -10.9688   15.6025  -28.7711 N   0  0  0  0  0  0  0  0  0  0  0  0
  -11.5036   16.5347  -27.9188 C   0  0  0  0  0  0  0  0  0  0  0  0
  -11.0104   17.9210  -27.9028 C   0  0  0  0  0  0  0  0  0  0  0  0
  -10.7901   18.5166  -29.2453 C   0  0  0  0  0  0  0  0  0  0  0  0
  -14.5423   16.7289  -25.6498 C   0  0  0  0  0  0  0  0  0  0  0  0
  -15.0668   18.0823  -25.0967 C   0  0  0  0  0  0  0  0  0  0  0  0
  1  2  2  0
  2  3  1  0
  3  4  2  0
  5  3  1  6
  5  6  1  0
  6  7  1  0
  7  8  1  0
  8  9  1  1
  9 10  2  0
 10 11  1  0
 11 12  1  0
 12 13  1  0
 13 14  2  0
 14 15  1  0
 15 16  2  0
 16 17  1  0
 17 18  1  0
 18 19  1  0
 20 19  1  0
 20 21  1  0
 21 22  1  0
 22 23  1  0
 23 24  1  0
 24 25  1  0
 24 26  1  0
 26 27  1  0
 20 28  1  0
 28 29  1  0
 16 30  1  0
 30 31  1  0
 30 32  2  0
 11 33  2  0
 33 34  1  0
 34 35  1  0
 34 36  2  0
 33 37  1  0
 37 38  2  0
 38 39  1  0
 39 40  1  0
  8 41  1  0
 41 42  1  0
 42  5  1  0
 38  9  1  0
 32 13  1  0
 29 17  1  0
 27 21  1  0
M  CHG  2   5   1  21   1
M  END
$$$$
CHEMBL3663925_diffdock_2
     RDKit          3D

 42 46  0  0  0  0  0  0  0  0999 V2000
  -16.5714   20.9784  -21.1001 C   0  0  0  0  0  0  0  0  0  0  0  0
  -15.6002   20.1052  -21.4153 C   0  0  0  0  0  0  0  0  0  0  0  0
  -15.5083   19.5582  -22.7371 C   0  0  0  0  0  0  0  0  0  0  0  0
  -16.0185   20.3138  -23.5848 O   0  0  0  0  0  0  0  0  0  0  0  0
  -15.1427   18.6010  -23.6259 N   0  0  2  0  0  4  0  0  0  0  0  0
  -13.6643   18.2132  -23.5322 C   0  0  0  0  0  0  0  0  0  0  0  0
  -13.4549   16.9426  -24.3249 C   0  0  0  0  0  0  0  0  0  0  0  0
  -13.6580   17.3594  -25.7920 C   0  0  1  0  0  0  0  0  0  0  0  0
  -13.0372   16.5273  -26.7695 C   0  0  0  0  0  0  0  0  0  0  0  0
  -13.3690   15.1926  -26.7472 N   0  0  0  0  0  0  0  0  0  0  0  0
  -12.8785   14.2785  -27.5906 C   0  0  0  0  0  0  0  0  0  0  0  0
  -13.2859   12.9250  -27.4869 N   0  0  0  0  0  0  0  0  0  0  0  0
  -14.4553   12.5106  -26.7942 C   0  0  0  0  0  0  0  0  0  0  0  0
  -14.9779   11.2419  -26.8824 C   0  0  0  0  0  0  0  0  0  0  0  0
  -16.1139   10.8570  -26.2060 C   0  0  0  0  0  0  0  0  0  0  0  0
  -16.8014   11.7576  -25.3824 C   0  0  0  0  0  0  0  0  0  0  0  0
  -17.9830   11.3502  -24.7008 N   0  0  0  0  0  0  0  0  0  0  0  0
  -17.8569   10.6013  -23.4577 C   0  0  0  0  0  0  0  0  0  0  0  0
  -18.9610    9.5561  -23.3701 C   0  0  0  0  0  0  0  0  0  0  0  0
  -20.2534   10.3258  -23.2252 C   0  0  0  0  0  0  0  0  0  0  0  0
  -21.4150    9.4648  -23.3313 N   0  0  0  0  0  4  0  0  0  0  0  0
  -22.6697   10.1770  -23.3870 C   0  0  0  0  0  0  0  0  0  0  0  0
  -23.7787    9.1445  -23.3344 C   0  0  0  0  0  0  0  0  0  0  0  0
  -23.4141    7.8564  -23.8039 N   0  0  0  0  0  0  0  0  0  0  0  0
  -23.4422    6.8052  -22.8450 C   0  0  0  0  0  0  0  0  0  0  0  0
  -22.3857    7.7774  -24.7778 C   0  0  0  0  0  0  0  0  0  0  0  0
  -21.2978    8.7865  -24.6337 C   0  0  0  0  0  0  0  0  0  0  0  0
  -20.3226   11.5610  -24.0543 C   0  0  0  0  0  0  0  0  0  0  0  0
  -19.3119   11.6285  -25.1753 C   0  0  0  0  0  0  0  0  0  0  0  0
  -16.2841   13.0260  -25.2908 C   0  0  0  0  0  0  0  0  0  0  0  0
  -16.9720   14.0264  -24.4216 C   0  0  0  0  0  0  0  0  0  0  0  0
  -15.1219   13.3984  -25.9904 C   0  0  0  0  0  0  0  0  0  0  0  0
  -11.9795   14.6726  -28.5550 C   0  0  0  0  0  0  0  0  0  0  0  0
  -11.4065   13.7078  -29.5112 C   0  0  0  0  0  0  0  0  0  0  0  0
  -10.3204   14.1025  -30.3428 N   0  0  0  0  0  0  0  0  0  0  0  0
  -11.8354   12.5378  -29.6301 O   0  0  0  0  0  0  0  0  0  0  0  0
  -11.6540   15.9629  -28.5824 N   0  0  0  0  0  0  0  0  0  0  0  0
  -12.1553   16.9038  -27.7194 C   0  0  0  0  0  0  0  0  0  0  0  0
  -11.7542   18.3162  -27.8185 C   0  0  0  0  0  0  0  0  0  0  0  0
  -10.2947   18.5572  -27.6869 C   0  0  0  0  0  0  0  0  0  0  0  0
  -15.0641   17.8012  -25.8765 C   0  0  0  0  0  0  0  0  0  0  0  0
  -15.1647   19.0573  -24.9684 C   0  0  0  0  0  0  0  0  0  0  0  0
  1  2  2  0
  2  3  1  0
  3  4  2  0
  5  3  1  1
  5  6  1  0
  6  7  1  0
  7  8  1  0
  8  9  1  6
  9 10  2  0
 10 11  1  0
 11 12  1  0
 12 13  1  0
 13 14  2  0
 14 15  1  0
 15 16  2  0
 16 17  1  0
 17 18  1  0
 18 19  1  0
 20 19  1  0
 20 21  1  0
 21 22  1  0
 22 23  1  0
 23 24  1  0
 24 25  1  0
 24 26  1  0
 26 27  1  0
 20 28  1  0
 28 29  1  0
 16 30  1  0
 30 31  1  0
 30 32  2  0
 11 33  2  0
 33 34  1  0
 34 35  1  0
 34 36  2  0
 33 37  1  0
 37 38  2  0
 38 39  1  0
 39 40  1  0
  8 41  1  0
 41 42  1  0
 42  5  1  0
 38  9  1  0
 32 13  1  0
 29 17  1  0
 27 21  1  0
M  CHG  2   5   1  21   1
M  END
$$$$
CHEMBL3663925_diffdock_3
     RDKit          3D

 42 46  0  0  0  0  0  0  0  0999 V2000
  -15.5762   22.0823  -22.9331 C   0  0  0  0  0  0  0  0  0  0  0  0
  -16.3372   20.9831  -23.0655 C   0  0  0  0  0  0  0  0  0  0  0  0
  -15.7463   19.7188  -23.3928 C   0  0  0  0  0  0  0  0  0  0  0  0
  -15.4466   19.0723  -22.3720 O   0  0  0  0  0  0  0  0  0  0  0  0
  -15.3071   18.7809  -24.2688 N   0  0  2  0  0  4  0  0  0  0  0  0
  -14.0450   18.0512  -23.8003 C   0  0  0  0  0  0  0  0  0  0  0  0
  -13.8427   16.8382  -24.6804 C   0  0  0  0  0  0  0  0  0  0  0  0
  -13.4735   17.4130  -26.0591 C   0  0  1  0  0  0  0  0  0  0  0  0
  -12.7448   16.5439  -26.9233 C   0  0  0  0  0  0  0  0  0  0  0  0
  -13.2396   15.2703  -27.0814 N   0  0  0  0  0  0  0  0  0  0  0  0
  -12.6793   14.3330  -27.8527 C   0  0  0  0  0  0  0  0  0  0  0  0
  -13.2690   13.0480  -27.9510 N   0  0  0  0  0  0  0  0  0  0  0  0
  -14.3056   12.5948  -27.0913 C   0  0  0  0  0  0  0  0  0  0  0  0
  -14.5122   11.2699  -26.7875 C   0  0  0  0  0  0  0  0  0  0  0  0
  -15.5233   10.8470  -25.9538 C   0  0  0  0  0  0  0  0  0  0  0  0
  -16.4038   11.7649  -25.3670 C   0  0  0  0  0  0  0  0  0  0  0  0
  -17.4538   11.3123  -24.5189 N   0  0  0  0  0  0  0  0  0  0  0  0
  -17.2077   11.2071  -23.0869 C   0  0  0  0  0  0  0  0  0  0  0  0
  -17.9356    9.9931  -22.5255 C   0  0  0  0  0  0  0  0  0  0  0  0
  -19.4106   10.3015  -22.6398 C   0  0  0  0  0  0  0  0  0  0  0  0
  -20.2339    9.1499  -22.3270 N   0  0  0  0  0  4  0  0  0  0  0  0
  -21.6516    9.3900  -22.4562 C   0  0  0  0  0  0  0  0  0  0  0  0
  -22.3680    8.1550  -21.9458 C   0  0  0  0  0  0  0  0  0  0  0  0
  -21.6129    6.9564  -22.0210 N   0  0  0  0  0  0  0  0  0  0  0  0
  -21.2901    6.3365  -20.7813 C   0  0  0  0  0  0  0  0  0  0  0  0
  -20.6247    6.8633  -23.0345 C   0  0  0  0  0  0  0  0  0  0  0  0
  -19.9187    8.1379  -23.3499 C   0  0  0  0  0  0  0  0  0  0  0  0
  -19.7893   11.0086  -23.8947 C   0  0  0  0  0  0  0  0  0  0  0  0
  -18.7580   10.9387  -24.9965 C   0  0  0  0  0  0  0  0  0  0  0  0
  -16.2022   13.0893  -25.6671 C   0  0  0  0  0  0  0  0  0  0  0  0
  -17.1067   14.1130  -25.0642 C   0  0  0  0  0  0  0  0  0  0  0  0
  -15.1627   13.4999  -26.5213 C   0  0  0  0  0  0  0  0  0  0  0  0
  -11.5297   14.6364  -28.5455 C   0  0  0  0  0  0  0  0  0  0  0  0
  -10.8691   13.6420  -29.4106 C   0  0  0  0  0  0  0  0  0  0  0  0
   -9.7470   14.0290  -30.1968 N   0  0  0  0  0  0  0  0  0  0  0  0
  -11.2528   12.4532  -29.4893 O   0  0  0  0  0  0  0  0  0  0  0  0
  -11.0454   15.8673  -28.3973 N   0  0  0  0  0  0  0  0  0  0  0  0
  -11.6175   16.8319  -27.6076 C   0  0  0  0  0  0  0  0  0  0  0  0
  -11.0273   18.1757  -27.5017 C   0  0  0  0  0  0  0  0  0  0  0  0
   -9.6819   18.3125  -28.1155 C   0  0  0  0  0  0  0  0  0  0  0  0
  -14.6610   18.1773  -26.4891 C   0  0  0  0  0  0  0  0  0  0  0  0
  -14.8029   19.3410  -25.4701 C   0  0  0  0  0  0  0  0  0  0  0  0
  1  2  2  0
  2  3  1  0
  3  4  2  0
  5  3  1  1
  5  6  1  0
  6  7  1  0
  7  8  1  0
  8  9  1  6
  9 10  2  0
 10 11  1  0
 11 12  1  0
 12 13  1  0
 13 14  2  0
 14 15  1  0
 15 16  2  0
 16 17  1  0
 17 18  1  0
 18 19  1  0
 20 19  1  0
 20 21  1  0
 21 22  1  0
 22 23  1  0
 23 24  1  0
 24 25  1  0
 24 26  1  0
 26 27  1  0
 20 28  1  0
 28 29  1  0
 16 30  1  0
 30 31  1  0
 30 32  2  0
 11 33  2  0
 33 34  1  0
 34 35  1  0
 34 36  2  0
 33 37  1  0
 37 38  2  0
 38 39  1  0
 39 40  1  0
  8 41  1  0
 41 42  1  0
 42  5  1  0
 38  9  1  0
 32 13  1  0
 29 17  1  0
 27 21  1  0
M  CHG  2   5   1  21   1
M  END
$$$$
CHEMBL3663925_diffdock_4
     RDKit          3D

 42 46  0  0  0  0  0  0  0  0999 V2000
  -17.2312   21.2366  -22.5995 C   0  0  0  0  0  0  0  0  0  0  0  0
  -15.8938   21.1117  -22.6284 C   0  0  0  0  0  0  0  0  0  0  0  0
  -15.2794   19.9474  -23.1954 C   0  0  0  0  0  0  0  0  0  0  0  0
  -15.5315   18.9244  -22.5323 O   0  0  0  0  0  0  0  0  0  0  0  0
  -14.5222   19.3117  -24.1241 N   0  0  2  0  0  4  0  0  0  0  0  0
  -15.3207   18.8347  -25.3405 C   0  0  0  0  0  0  0  0  0  0  0  0
  -14.3440   18.4419  -26.4261 C   0  0  0  0  0  0  0  0  0  0  0  0
  -13.6528   17.1759  -25.8906 C   0  0  1  0  0  0  0  0  0  0  0  0
  -13.0815   16.3135  -26.8719 C   0  0  0  0  0  0  0  0  0  0  0  0
  -13.4449   14.9879  -26.8183 N   0  0  0  0  0  0  0  0  0  0  0  0
  -13.0019   14.0489  -27.6605 C   0  0  0  0  0  0  0  0  0  0  0  0
  -13.4388   12.7077  -27.5229 N   0  0  0  0  0  0  0  0  0  0  0  0
  -14.5882   12.3318  -26.7767 C   0  0  0  0  0  0  0  0  0  0  0  0
  -15.0617   11.0425  -26.7139 C   0  0  0  0  0  0  0  0  0  0  0  0
  -16.1788   10.6952  -25.9875 C   0  0  0  0  0  0  0  0  0  0  0  0
  -16.8968   11.6580  -25.2666 C   0  0  0  0  0  0  0  0  0  0  0  0
  -18.0585   11.2872  -24.5320 N   0  0  0  0  0  0  0  0  0  0  0  0
  -17.9614   11.1415  -23.0858 C   0  0  0  0  0  0  0  0  0  0  0  0
  -18.8412    9.9881  -22.6226 C   0  0  0  0  0  0  0  0  0  0  0  0
  -20.2665   10.4256  -22.8695 C   0  0  0  0  0  0  0  0  0  0  0  0
  -21.2116    9.3460  -22.6614 N   0  0  0  0  0  4  0  0  0  0  0  0
  -20.6141    8.1328  -22.1560 C   0  0  0  0  0  0  0  0  0  0  0  0
  -21.6927    7.0672  -22.1464 C   0  0  0  0  0  0  0  0  0  0  0  0
  -23.0182    7.5642  -22.0546 N   0  0  0  0  0  0  0  0  0  0  0  0
  -23.8634    7.3145  -23.1721 C   0  0  0  0  0  0  0  0  0  0  0  0
  -23.2112    8.8074  -21.3992 C   0  0  0  0  0  0  0  0  0  0  0  0
  -22.1190    9.8031  -21.5948 C   0  0  0  0  0  0  0  0  0  0  0  0
  -20.4606   11.1800  -24.1388 C   0  0  0  0  0  0  0  0  0  0  0  0
  -19.3378   11.0353  -25.1392 C   0  0  0  0  0  0  0  0  0  0  0  0
  -16.4284   12.9471  -25.3259 C   0  0  0  0  0  0  0  0  0  0  0  0
  -17.1505   14.0141  -24.5711 C   0  0  0  0  0  0  0  0  0  0  0  0
  -15.2848   13.2803  -26.0741 C   0  0  0  0  0  0  0  0  0  0  0  0
  -12.1223   14.4055  -28.6569 C   0  0  0  0  0  0  0  0  0  0  0  0
  -11.6014   13.4120  -29.6136 C   0  0  0  0  0  0  0  0  0  0  0  0
  -10.5240   13.7632  -30.4754 N   0  0  0  0  0  0  0  0  0  0  0  0
  -12.0679   12.2542  -29.7070 O   0  0  0  0  0  0  0  0  0  0  0  0
  -11.7664   15.6868  -28.7149 N   0  0  0  0  0  0  0  0  0  0  0  0
  -12.2191   16.6532  -27.8531 C   0  0  0  0  0  0  0  0  0  0  0  0
  -11.7867   18.0534  -27.9869 C   0  0  0  0  0  0  0  0  0  0  0  0
  -10.8910   18.3185  -29.1415 C   0  0  0  0  0  0  0  0  0  0  0  0
  -12.9354   17.6121  -24.6763 C   0  0  0  0  0  0  0  0  0  0  0  0
  -14.0366   18.0572  -23.6753 C   0  0  0  0  0  0  0  0  0  0  0  0
  1  2  2  0
  2  3  1  0
  3  4  2  0
  5  3  1  1
  5  6  1  0
  6  7  1  0
  7  8  1  0
  8  9  1  6
  9 10  2  0
 10 11  1  0
 11 12  1  0
 12 13  1  0
 13 14  2  0
 14 15  1  0
 15 16  2  0
 16 17  1  0
 17 18  1  0
 18 19  1  0
 20 19  1  0
 20 21  1  0
 21 22  1  0
 22 23  1  0
 23 24  1  0
 24 25  1  0
 24 26  1  0
 26 27  1  0
 20 28  1  0
 28 29  1  0
 16 30  1  0
 30 31  1  0
 30 32  2  0
 11 33  2  0
 33 34  1  0
 34 35  1  0
 34 36  2  0
 33 37  1  0
 37 38  2  0
 38 39  1  0
 39 40  1  0
  8 41  1  0
 41 42  1  0
 42  5  1  0
 38  9  1  0
 32 13  1  0
 29 17  1  0
 27 21  1  0
M  CHG  2   5   1  21   1
M  END
$$$$
CHEMBL3663925_diffdock_5
     RDKit          3D

 42 46  0  0  0  0  0  0  0  0999 V2000
  -16.3613   21.1000  -20.9346 C   0  0  0  0  0  0  0  0  0  0  0  0
  -15.4542   20.9570  -21.9153 C   0  0  0  0  0  0  0  0  0  0  0  0
  -15.7174   20.1048  -23.0374 C   0  0  0  0  0  0  0  0  0  0  0  0
  -16.8464   20.3128  -23.5189 O   0  0  0  0  0  0  0  0  0  0  0  0
  -15.3825   19.1299  -23.9191 N   0  0  2  0  0  4  0  0  0  0  0  0
  -14.0440   18.4559  -23.6048 C   0  0  0  0  0  0  0  0  0  0  0  0
  -13.9356   17.2009  -24.4414 C   0  0  0  0  0  0  0  0  0  0  0  0
  -13.7894   17.7064  -25.8872 C   0  0  1  0  0  0  0  0  0  0  0  0
  -13.1687   16.8075  -26.8036 C   0  0  0  0  0  0  0  0  0  0  0  0
  -13.6402   15.5154  -26.8188 N   0  0  0  0  0  0  0  0  0  0  0  0
  -13.1700   14.5495  -27.6146 C   0  0  0  0  0  0  0  0  0  0  0  0
  -13.7261   13.2471  -27.5561 N   0  0  0  0  0  0  0  0  0  0  0  0
  -14.9183   12.9364  -26.8482 C   0  0  0  0  0  0  0  0  0  0  0  0
  -15.5919   13.8435  -26.0647 C   0  0  0  0  0  0  0  0  0  0  0  0
  -16.7453   13.5255  -25.3832 C   0  0  0  0  0  0  0  0  0  0  0  0
  -17.2946   12.2391  -25.4586 C   0  0  0  0  0  0  0  0  0  0  0  0
  -18.4795   11.9201  -24.7368 N   0  0  0  0  0  0  0  0  0  0  0  0
  -19.1268   12.9607  -23.9491 C   0  0  0  0  0  0  0  0  0  0  0  0
  -19.6974   12.3613  -22.6708 C   0  0  0  0  0  0  0  0  0  0  0  0
  -20.8234   11.4509  -23.1034 C   0  0  0  0  0  0  0  0  0  0  0  0
  -21.3328   10.6543  -22.0045 N   0  0  0  0  0  4  0  0  0  0  0  0
  -22.4648    9.8291  -22.3537 C   0  0  0  0  0  0  0  0  0  0  0  0
  -22.9711    9.1908  -21.0749 C   0  0  0  0  0  0  0  0  0  0  0  0
  -21.9975    9.0566  -20.0519 N   0  0  0  0  0  0  0  0  0  0  0  0
  -22.2293    9.7994  -18.8604 C   0  0  0  0  0  0  0  0  0  0  0  0
  -20.6410    8.9290  -20.4467 C   0  0  0  0  0  0  0  0  0  0  0  0
  -20.2577    9.7088  -21.6582 C   0  0  0  0  0  0  0  0  0  0  0  0
  -20.5397   10.6796  -24.3455 C   0  0  0  0  0  0  0  0  0  0  0  0
  -19.0801   10.6132  -24.7299 C   0  0  0  0  0  0  0  0  0  0  0  0
  -16.6261   11.3292  -26.2394 C   0  0  0  0  0  0  0  0  0  0  0  0
  -17.1699    9.9440  -26.3621 C   0  0  0  0  0  0  0  0  0  0  0  0
  -15.4489   11.6751  -26.9276 C   0  0  0  0  0  0  0  0  0  0  0  0
  -12.1456   14.8405  -28.4862 C   0  0  0  0  0  0  0  0  0  0  0  0
  -11.5883   13.8147  -29.3866 C   0  0  0  0  0  0  0  0  0  0  0  0
  -10.4379   14.1162  -30.1694 N   0  0  0  0  0  0  0  0  0  0  0  0
  -12.0854   12.6714  -29.4987 O   0  0  0  0  0  0  0  0  0  0  0  0
  -11.6846   16.0891  -28.4769 N   0  0  0  0  0  0  0  0  0  0  0  0
  -12.1646   17.0830  -27.6625 C   0  0  0  0  0  0  0  0  0  0  0  0
  -11.6089   18.4445  -27.7168 C   0  0  0  0  0  0  0  0  0  0  0  0
  -10.5126   18.6283  -28.7017 C   0  0  0  0  0  0  0  0  0  0  0  0
  -15.0497   18.4189  -26.1762 C   0  0  0  0  0  0  0  0  0  0  0  0
  -15.0765   19.6338  -25.2088 C   0  0  0  0  0  0  0  0  0  0  0  0
  1  2  2  0
  2  3  1  0
  3  4  2  0
  5  3  1  1
  5  6  1  0
  6  7  1  0
  7  8  1  0
  8  9  1  6
  9 10  2  0
 10 11  1  0
 11 12  1  0
 12 13  1  0
 13 14  2  0
 14 15  1  0
 15 16  2  0
 16 17  1  0
 17 18  1  0
 18 19  1  0
 20 19  1  0
 20 21  1  0
 21 22  1  0
 22 23  1  0
 23 24  1  0
 24 25  1  0
 24 26  1  0
 26 27  1  0
 20 28  1  0
 28 29  1  0
 16 30  1  0
 30 31  1  0
 30 32  2  0
 11 33  2  0
 33 34  1  0
 34 35  1  0
 34 36  2  0
 33 37  1  0
 37 38  2  0
 38 39  1  0
 39 40  1  0
  8 41  1  0
 41 42  1  0
 42  5  1  0
 38  9  1  0
 32 13  1  0
 29 17  1  0
 27 21  1  0
M  CHG  2   5   1  21   1
M  END
$$$$
CHEMBL3663925_diffdock_6
     RDKit          3D

 42 46  0  0  0  0  0  0  0  0999 V2000
  -15.5763   19.8145  -20.2618 C   0  0  0  0  0  0  0  0  0  0  0  0
  -15.8350   20.2589  -21.5030 C   0  0  0  0  0  0  0  0  0  0  0  0
  -15.1217   19.7363  -22.6312 C   0  0  0  0  0  0  0  0  0  0  0  0
  -14.7083   20.6444  -23.3757 O   0  0  0  0  0  0  0  0  0  0  0  0
  -14.6184   18.7223  -23.3785 N   0  0  2  0  0  4  0  0  0  0  0  0
  -13.1704   18.9506  -23.8214 C   0  0  0  0  0  0  0  0  0  0  0  0
  -12.6253   17.6453  -24.3560 C   0  0  0  0  0  0  0  0  0  0  0  0
  -13.4010   17.4039  -25.6627 C   0  0  1  0  0  0  0  0  0  0  0  0
  -12.7664   16.5572  -26.6185 C   0  0  0  0  0  0  0  0  0  0  0  0
  -13.1426   15.2342  -26.6199 N   0  0  0  0  0  0  0  0  0  0  0  0
  -12.6466   14.3091  -27.4479 C   0  0  0  0  0  0  0  0  0  0  0  0
  -13.1024   12.9693  -27.3713 N   0  0  0  0  0  0  0  0  0  0  0  0
  -14.3317   12.5944  -26.7652 C   0  0  0  0  0  0  0  0  0  0  0  0
  -14.9703   11.4041  -27.0217 C   0  0  0  0  0  0  0  0  0  0  0  0
  -16.1628   11.0568  -26.4273 C   0  0  0  0  0  0  0  0  0  0  0  0
  -16.7911   11.9169  -25.5175 C   0  0  0  0  0  0  0  0  0  0  0  0
  -18.0313   11.5513  -24.9217 N   0  0  0  0  0  0  0  0  0  0  0  0
  -18.0196   10.8042  -23.6711 C   0  0  0  0  0  0  0  0  0  0  0  0
  -19.1608    9.7960  -23.6610 C   0  0  0  0  0  0  0  0  0  0  0  0
  -20.4343   10.6082  -23.6110 C   0  0  0  0  0  0  0  0  0  0  0  0
  -21.6130    9.7852  -23.7986 N   0  0  0  0  0  4  0  0  0  0  0  0
  -22.6673   10.0452  -22.8472 C   0  0  0  0  0  0  0  0  0  0  0  0
  -23.7487    9.0071  -23.0751 C   0  0  0  0  0  0  0  0  0  0  0  0
  -23.7858    8.4658  -24.3859 N   0  0  0  0  0  0  0  0  0  0  0  0
  -23.5058    7.0753  -24.5014 C   0  0  0  0  0  0  0  0  0  0  0  0
  -23.3178    9.2810  -25.4483 C   0  0  0  0  0  0  0  0  0  0  0  0
  -22.1702   10.1693  -25.1071 C   0  0  0  0  0  0  0  0  0  0  0  0
  -20.4031   11.8413  -24.4456 C   0  0  0  0  0  0  0  0  0  0  0  0
  -19.3129   11.8707  -25.4911 C   0  0  0  0  0  0  0  0  0  0  0  0
  -16.1579   13.1069  -25.2577 C   0  0  0  0  0  0  0  0  0  0  0  0
  -16.7787   14.0601  -24.2904 C   0  0  0  0  0  0  0  0  0  0  0  0
  -14.9396   13.4420  -25.8760 C   0  0  0  0  0  0  0  0  0  0  0  0
  -11.6944   14.6785  -28.3701 C   0  0  0  0  0  0  0  0  0  0  0  0
  -11.1129   13.7007  -29.3077 C   0  0  0  0  0  0  0  0  0  0  0  0
   -9.9495   14.0461  -30.0521 N   0  0  0  0  0  0  0  0  0  0  0  0
  -11.6002   12.5613  -29.4847 O   0  0  0  0  0  0  0  0  0  0  0  0
  -11.3257   15.9575  -28.3745 N   0  0  0  0  0  0  0  0  0  0  0  0
  -11.8325   16.9097  -27.5272 C   0  0  0  0  0  0  0  0  0  0  0  0
  -11.3812   18.3084  -27.5990 C   0  0  0  0  0  0  0  0  0  0  0  0
  -10.5797   18.6405  -28.8044 C   0  0  0  0  0  0  0  0  0  0  0  0
  -14.8108   17.2514  -25.2521 C   0  0  0  0  0  0  0  0  0  0  0  0
  -15.2254   18.6246  -24.6563 C   0  0  0  0  0  0  0  0  0  0  0  0
  1  2  2  0
  2  3  1  0
  3  4  2  0
  5  3  1  6
  5  6  1  0
  6  7  1  0
  7  8  1  0
  8  9  1  1
  9 10  2  0
 10 11  1  0
 11 12  1  0
 12 13  1  0
 13 14  2  0
 14 15  1  0
 15 16  2  0
 16 17  1  0
 17 18  1  0
 18 19  1  0
 20 19  1  0
 20 21  1  0
 21 22  1  0
 22 23  1  0
 23 24  1  0
 24 25  1  0
 24 26  1  0
 26 27  1  0
 20 28  1  0
 28 29  1  0
 16 30  1  0
 30 31  1  0
 30 32  2  0
 11 33  2  0
 33 34  1  0
 34 35  1  0
 34 36  2  0
 33 37  1  0
 37 38  2  0
 38 39  1  0
 39 40  1  0
  8 41  1  0
 41 42  1  0
 42  5  1  0
 38  9  1  0
 32 13  1  0
 29 17  1  0
 27 21  1  0
M  CHG  2   5   1  21   1
M  END
$$$$
CHEMBL3663925_diffdock_7
     RDKit          3D

 42 46  0  0  0  0  0  0  0  0999 V2000
  -15.2036   18.9130  -20.8116 C   0  0  0  0  0  0  0  0  0  0  0  0
  -15.2354   19.7818  -21.8358 C   0  0  0  0  0  0  0  0  0  0  0  0
  -15.4608   19.3258  -23.1759 C   0  0  0  0  0  0  0  0  0  0  0  0
  -16.6219   19.5662  -23.5551 O   0  0  0  0  0  0  0  0  0  0  0  0
  -15.0704   18.7355  -24.3332 N   0  0  2  0  0  4  0  0  0  0  0  0
  -14.8940   17.2190  -24.2158 C   0  0  0  0  0  0  0  0  0  0  0  0
  -14.7784   16.6445  -25.6098 C   0  0  0  0  0  0  0  0  0  0  0  0
  -13.4250   17.1568  -26.1326 C   0  0  1  0  0  0  0  0  0  0  0  0
  -12.8261   16.3883  -27.1738 C   0  0  0  0  0  0  0  0  0  0  0  0
  -13.2216   15.0752  -27.2800 N   0  0  0  0  0  0  0  0  0  0  0  0
  -12.7593   14.2193  -28.1971 C   0  0  0  0  0  0  0  0  0  0  0  0
  -13.2327   12.8837  -28.2251 N   0  0  0  0  0  0  0  0  0  0  0  0
  -14.2524   12.3967  -27.3636 C   0  0  0  0  0  0  0  0  0  0  0  0
  -14.5883   11.0672  -27.2640 C   0  0  0  0  0  0  0  0  0  0  0  0
  -15.5810   10.6118  -26.4253 C   0  0  0  0  0  0  0  0  0  0  0  0
  -16.3072   11.4993  -25.6210 C   0  0  0  0  0  0  0  0  0  0  0  0
  -17.3409   11.0162  -24.7696 N   0  0  0  0  0  0  0  0  0  0  0  0
  -18.2791   10.0304  -25.2893 C   0  0  0  0  0  0  0  0  0  0  0  0
  -19.6692   10.2929  -24.7257 C   0  0  0  0  0  0  0  0  0  0  0  0
  -19.5820    9.9972  -23.2462 C   0  0  0  0  0  0  0  0  0  0  0  0
  -20.7833   10.3960  -22.5393 N   0  0  0  0  0  4  0  0  0  0  0  0
  -21.2696   11.7062  -22.9018 C   0  0  0  0  0  0  0  0  0  0  0  0
  -22.4206   12.0351  -21.9713 C   0  0  0  0  0  0  0  0  0  0  0  0
  -23.0899   10.9065  -21.4321 N   0  0  0  0  0  0  0  0  0  0  0  0
  -23.0099   10.7416  -20.0208 C   0  0  0  0  0  0  0  0  0  0  0  0
  -23.0842    9.7109  -22.1955 C   0  0  0  0  0  0  0  0  0  0  0  0
  -21.8359    9.4602  -22.9709 C   0  0  0  0  0  0  0  0  0  0  0  0
  -18.3129   10.4465  -22.6093 C   0  0  0  0  0  0  0  0  0  0  0  0
  -17.5241   11.4544  -23.4120 C   0  0  0  0  0  0  0  0  0  0  0  0
  -15.9760   12.8282  -25.7165 C   0  0  0  0  0  0  0  0  0  0  0  0
  -16.7128   13.8190  -24.8769 C   0  0  0  0  0  0  0  0  0  0  0  0
  -14.9581   13.2722  -26.5798 C   0  0  0  0  0  0  0  0  0  0  0  0
  -11.8243   14.6554  -29.1077 C   0  0  0  0  0  0  0  0  0  0  0  0
  -11.2800   13.7554  -30.1408 C   0  0  0  0  0  0  0  0  0  0  0  0
  -10.2275   14.2093  -30.9852 N   0  0  0  0  0  0  0  0  0  0  0  0
  -11.7050   12.5910  -30.3150 O   0  0  0  0  0  0  0  0  0  0  0  0
  -11.4371   15.9252  -29.0109 N   0  0  0  0  0  0  0  0  0  0  0  0
  -11.9093   16.8066  -28.0719 C   0  0  0  0  0  0  0  0  0  0  0  0
  -11.4394   18.2005  -28.0340 C   0  0  0  0  0  0  0  0  0  0  0  0
  -10.1701   18.4073  -27.2913 C   0  0  0  0  0  0  0  0  0  0  0  0
  -13.5619   18.6258  -26.1835 C   0  0  0  0  0  0  0  0  0  0  0  0
  -13.7479   19.0813  -24.7102 C   0  0  0  0  0  0  0  0  0  0  0  0
  1  2  2  0
  2  3  1  0
  3  4  2  0
  5  3  1  1
  5  6  1  0
  6  7  1  0
  7  8  1  0
  8  9  1  6
  9 10  2  0
 10 11  1  0
 11 12  1  0
 12 13  1  0
 13 14  2  0
 14 15  1  0
 15 16  2  0
 16 17  1  0
 17 18  1  0
 18 19  1  0
 20 19  1  0
 20 21  1  0
 21 22  1  0
 22 23  1  0
 23 24  1  0
 24 25  1  0
 24 26  1  0
 26 27  1  0
 20 28  1  0
 28 29  1  0
 16 30  1  0
 30 31  1  0
 30 32  2  0
 11 33  2  0
 33 34  1  0
 34 35  1  0
 34 36  2  0
 33 37  1  0
 37 38  2  0
 38 39  1  0
 39 40  1  0
  8 41  1  0
 41 42  1  0
 42  5  1  0
 38  9  1  0
 32 13  1  0
 29 17  1  0
 27 21  1  0
M  CHG  2   5   1  21   1
M  END
$$$$
CHEMBL3663925_diffdock_8
     RDKit          3D

 42 46  0  0  0  0  0  0  0  0999 V2000
  -15.7049   21.7597  -21.6721 C   0  0  0  0  0  0  0  0  0  0  0  0
  -16.2236   20.6953  -22.3069 C   0  0  0  0  0  0  0  0  0  0  0  0
  -15.3705   19.7360  -22.9446 C   0  0  0  0  0  0  0  0  0  0  0  0
  -14.7951   19.0079  -22.1149 O   0  0  0  0  0  0  0  0  0  0  0  0
  -14.8123   19.1508  -24.0336 N   0  0  2  0  0  4  0  0  0  0  0  0
  -15.1973   17.6781  -24.2002 C   0  0  0  0  0  0  0  0  0  0  0  0
  -14.7905   17.2343  -25.5874 C   0  0  0  0  0  0  0  0  0  0  0  0
  -13.2521   17.2363  -25.5629 C   0  0  1  0  0  0  0  0  0  0  0  0
  -12.6109   16.3969  -26.5207 C   0  0  0  0  0  0  0  0  0  0  0  0
  -12.9516   15.0644  -26.5026 N   0  0  0  0  0  0  0  0  0  0  0  0
  -12.4447   14.1443  -27.3296 C   0  0  0  0  0  0  0  0  0  0  0  0
  -12.8631   12.7937  -27.2320 N   0  0  0  0  0  0  0  0  0  0  0  0
  -14.0766   12.3933  -26.6103 C   0  0  0  0  0  0  0  0  0  0  0  0
  -14.6244   11.1407  -26.7558 C   0  0  0  0  0  0  0  0  0  0  0  0
  -15.8028   10.7692  -26.1479 C   0  0  0  0  0  0  0  0  0  0  0  0
  -16.5101   11.6679  -25.3390 C   0  0  0  0  0  0  0  0  0  0  0  0
  -17.7348   11.2751  -24.7288 N   0  0  0  0  0  0  0  0  0  0  0  0
  -17.7202   10.1975  -23.7486 C   0  0  0  0  0  0  0  0  0  0  0  0
  -18.9811    9.3551  -23.8882 C   0  0  0  0  0  0  0  0  0  0  0  0
  -20.1264   10.2449  -23.4635 C   0  0  0  0  0  0  0  0  0  0  0  0
  -21.4158    9.6403  -23.7351 N   0  0  0  0  0  4  0  0  0  0  0  0
  -22.0804    9.1245  -22.5619 C   0  0  0  0  0  0  0  0  0  0  0  0
  -23.3226    8.3924  -23.0307 C   0  0  0  0  0  0  0  0  0  0  0  0
  -23.8362    8.8320  -24.2779 N   0  0  0  0  0  0  0  0  0  0  0  0
  -23.8159    7.8822  -25.3375 C   0  0  0  0  0  0  0  0  0  0  0  0
  -23.5958   10.1794  -24.6508 C   0  0  0  0  0  0  0  0  0  0  0  0
  -22.2793   10.7307  -24.2202 C   0  0  0  0  0  0  0  0  0  0  0  0
  -19.9995   11.6582  -23.9161 C   0  0  0  0  0  0  0  0  0  0  0  0
  -19.0047   11.8788  -25.0315 C   0  0  0  0  0  0  0  0  0  0  0  0
  -15.9677   12.9203  -25.1904 C   0  0  0  0  0  0  0  0  0  0  0  0
  -16.6753   13.9176  -24.3336 C   0  0  0  0  0  0  0  0  0  0  0  0
  -14.7622   13.2791  -25.8204 C   0  0  0  0  0  0  0  0  0  0  0  0
  -11.5182   14.5293  -28.2714 C   0  0  0  0  0  0  0  0  0  0  0  0
  -10.9263   13.5575  -29.2088 C   0  0  0  0  0  0  0  0  0  0  0  0
   -9.8796   13.9700  -30.0813 N   0  0  0  0  0  0  0  0  0  0  0  0
  -11.3053   12.3665  -29.2766 O   0  0  0  0  0  0  0  0  0  0  0  0
  -11.1840   15.8175  -28.2947 N   0  0  0  0  0  0  0  0  0  0  0  0
  -11.7020   16.7646  -27.4485 C   0  0  0  0  0  0  0  0  0  0  0  0
  -11.2896   18.1741  -27.5418 C   0  0  0  0  0  0  0  0  0  0  0  0
  -11.2826   18.7284  -28.9196 C   0  0  0  0  0  0  0  0  0  0  0  0
  -12.8716   18.6441  -25.3330 C   0  0  0  0  0  0  0  0  0  0  0  0
  -13.4072   18.9981  -23.9186 C   0  0  0  0  0  0  0  0  0  0  0  0
  1  2  2  0
  2  3  1  0
  3  4  2  0
  5  3  1  1
  5  6  1  0
  6  7  1  0
  7  8  1  0
  8  9  1  6
  9 10  2  0
 10 11  1  0
 11 12  1  0
 12 13  1  0
 13 14  2  0
 14 15  1  0
 15 16  2  0
 16 17  1  0
 17 18  1  0
 18 19  1  0
 20 19  1  0
 20 21  1  0
 21 22  1  0
 22 23  1  0
 23 24  1  0
 24 25  1  0
 24 26  1  0
 26 27  1  0
 20 28  1  0
 28 29  1  0
 16 30  1  0
 30 31  1  0
 30 32  2  0
 11 33  2  0
 33 34  1  0
 34 35  1  0
 34 36  2  0
 33 37  1  0
 37 38  2  0
 38 39  1  0
 39 40  1  0
  8 41  1  0
 41 42  1  0
 42  5  1  0
 38  9  1  0
 32 13  1  0
 29 17  1  0
 27 21  1  0
M  CHG  2   5   1  21   1
M  END
$$$$
CHEMBL3663925_diffdock_9
     RDKit          3D

 42 46  0  0  0  0  0  0  0  0999 V2000
  -15.6914   22.6310  -23.5630 C   0  0  0  0  0  0  0  0  0  0  0  0
  -15.6048   21.5071  -22.8322 C   0  0  0  0  0  0  0  0  0  0  0  0
  -15.7123   20.2198  -23.4535 C   0  0  0  0  0  0  0  0  0  0  0  0
  -16.8475   19.7304  -23.3057 O   0  0  0  0  0  0  0  0  0  0  0  0
  -15.2166   19.1751  -24.1627 N   0  0  2  0  0  4  0  0  0  0  0  0
  -13.8282   19.4409  -24.7515 C   0  0  0  0  0  0  0  0  0  0  0  0
  -13.2555   18.1260  -25.2308 C   0  0  0  0  0  0  0  0  0  0  0  0
  -14.1255   17.7381  -26.4391 C   0  0  1  0  0  0  0  0  0  0  0  0
  -13.5270   16.8496  -27.3802 C   0  0  0  0  0  0  0  0  0  0  0  0
  -13.9210   15.5328  -27.3257 N   0  0  0  0  0  0  0  0  0  0  0  0
  -13.4589   14.5725  -28.1328 C   0  0  0  0  0  0  0  0  0  0  0  0
  -13.9306   13.2428  -27.9978 N   0  0  0  0  0  0  0  0  0  0  0  0
  -15.0103   12.8780  -27.1491 C   0  0  0  0  0  0  0  0  0  0  0  0
  -15.6627   13.7679  -26.3288 C   0  0  0  0  0  0  0  0  0  0  0  0
  -16.7063   13.3974  -25.5104 C   0  0  0  0  0  0  0  0  0  0  0  0
  -17.1586   12.0721  -25.4759 C   0  0  0  0  0  0  0  0  0  0  0  0
  -18.2289   11.7002  -24.6139 N   0  0  0  0  0  0  0  0  0  0  0  0
  -17.9678   11.5549  -23.1881 C   0  0  0  0  0  0  0  0  0  0  0  0
  -18.7879   10.4006  -22.6278 C   0  0  0  0  0  0  0  0  0  0  0  0
  -20.2326   10.8364  -22.7110 C   0  0  0  0  0  0  0  0  0  0  0  0
  -21.1466    9.7558  -22.3968 N   0  0  0  0  0  4  0  0  0  0  0  0
  -22.5403   10.1220  -22.4858 C   0  0  0  0  0  0  0  0  0  0  0  0
  -23.3506    8.9452  -21.9783 C   0  0  0  0  0  0  0  0  0  0  0  0
  -22.7062    7.6866  -22.0928 N   0  0  0  0  0  0  0  0  0  0  0  0
  -22.4099    7.0173  -20.8723 C   0  0  0  0  0  0  0  0  0  0  0  0
  -21.7546    7.5263  -23.1325 C   0  0  0  0  0  0  0  0  0  0  0  0
  -20.9465    8.7397  -23.4443 C   0  0  0  0  0  0  0  0  0  0  0  0
  -20.5706   11.5904  -23.9502 C   0  0  0  0  0  0  0  0  0  0  0  0
  -19.5686   11.4468  -25.0717 C   0  0  0  0  0  0  0  0  0  0  0  0
  -16.5107   11.1792  -26.2929 C   0  0  0  0  0  0  0  0  0  0  0  0
  -16.9552    9.7537  -26.3023 C   0  0  0  0  0  0  0  0  0  0  0  0
  -15.4466   11.5789  -27.1216 C   0  0  0  0  0  0  0  0  0  0  0  0
  -12.5257   14.8958  -29.0911 C   0  0  0  0  0  0  0  0  0  0  0  0
  -11.9816   13.8777  -30.0080 C   0  0  0  0  0  0  0  0  0  0  0  0
  -10.8877   14.2087  -30.8570 N   0  0  0  0  0  0  0  0  0  0  0  0
  -12.4420   12.7158  -30.0780 O   0  0  0  0  0  0  0  0  0  0  0  0
  -12.1400   16.1684  -29.1496 N   0  0  0  0  0  0  0  0  0  0  0  0
  -12.6120   17.1567  -28.3238 C   0  0  0  0  0  0  0  0  0  0  0  0
  -12.1438   18.5455  -28.4561 C   0  0  0  0  0  0  0  0  0  0  0  0
  -11.4328   18.8421  -29.7257 C   0  0  0  0  0  0  0  0  0  0  0  0
  -15.4831   17.5471  -25.8917 C   0  0  0  0  0  0  0  0  0  0  0  0
  -15.9249   18.9414  -25.3687 C   0  0  0  0  0  0  0  0  0  0  0  0
  1  2  2  0
  2  3  1  0
  3  4  2  0
  5  3  1  6
  5  6  1  0
  6  7  1  0
  7  8  1  0
  8  9  1  1
  9 10  2  0
 10 11  1  0
 11 12  1  0
 12 13  1  0
 13 14  2  0
 14 15  1  0
 15 16  2  0
 16 17  1  0
 17 18  1  0
 18 19  1  0
 20 19  1  0
 20 21  1  0
 21 22  1  0
 22 23  1  0
 23 24  1  0
 24 25  1  0
 24 26  1  0
 26 27  1  0
 20 28  1  0
 28 29  1  0
 16 30  1  0
 30 31  1  0
 30 32  2  0
 11 33  2  0
 33 34  1  0
 34 35  1  0
 34 36  2  0
 33 37  1  0
 37 38  2  0
 38 39  1  0
 39 40  1  0
  8 41  1  0
 41 42  1  0
 42  5  1  0
 38  9  1  0
 32 13  1  0
 29 17  1  0
 27 21  1  0
M  CHG  2   5   1  21   1
M  END
$$$$
CHEMBL3663925_diffdock_10
     RDKit          3D

 42 46  0  0  0  0  0  0  0  0999 V2000
  -15.5777   22.6297  -22.9412 C   0  0  0  0  0  0  0  0  0  0  0  0
  -15.9493   21.3685  -22.6649 C   0  0  0  0  0  0  0  0  0  0  0  0
  -15.1790   20.2574  -23.1411 C   0  0  0  0  0  0  0  0  0  0  0  0
  -15.2897   19.2668  -22.3953 O   0  0  0  0  0  0  0  0  0  0  0  0
  -14.3389   19.6584  -24.0217 N   0  0  2  0  0  4  0  0  0  0  0  0
  -15.0547   19.0489  -25.2305 C   0  0  0  0  0  0  0  0  0  0  0  0
  -14.0162   18.7061  -26.2749 C   0  0  0  0  0  0  0  0  0  0  0  0
  -13.2179   17.5410  -25.6643 C   0  0  1  0  0  0  0  0  0  0  0  0
  -12.5391   16.6957  -26.5905 C   0  0  0  0  0  0  0  0  0  0  0  0
  -12.9440   15.3822  -26.6416 N   0  0  0  0  0  0  0  0  0  0  0  0
  -12.4139   14.4597  -27.4512 C   0  0  0  0  0  0  0  0  0  0  0  0
  -12.9038   13.1299  -27.4302 N   0  0  0  0  0  0  0  0  0  0  0  0
  -14.0897   12.7436  -26.7493 C   0  0  0  0  0  0  0  0  0  0  0  0
  -14.8368   13.6054  -25.9815 C   0  0  0  0  0  0  0  0  0  0  0  0
  -15.9830   13.2142  -25.3262 C   0  0  0  0  0  0  0  0  0  0  0  0
  -16.4479   11.8957  -25.4136 C   0  0  0  0  0  0  0  0  0  0  0  0
  -17.6262   11.5015  -24.7187 N   0  0  0  0  0  0  0  0  0  0  0  0
  -18.6284   10.7119  -25.4217 C   0  0  0  0  0  0  0  0  0  0  0  0
  -20.0226   11.1291  -24.9732 C   0  0  0  0  0  0  0  0  0  0  0  0
  -20.1414   10.7018  -23.5286 C   0  0  0  0  0  0  0  0  0  0  0  0
  -21.3467   11.2135  -22.9064 N   0  0  0  0  0  4  0  0  0  0  0  0
  -22.5564   10.5586  -23.3447 C   0  0  0  0  0  0  0  0  0  0  0  0
  -23.7237   11.3067  -22.7310 C   0  0  0  0  0  0  0  0  0  0  0  0
  -23.4197   12.0024  -21.5327 N   0  0  0  0  0  0  0  0  0  0  0  0
  -23.5360   13.4200  -21.5805 C   0  0  0  0  0  0  0  0  0  0  0  0
  -22.3693   11.4952  -20.7254 C   0  0  0  0  0  0  0  0  0  0  0  0
  -21.2302   10.8911  -21.4738 C   0  0  0  0  0  0  0  0  0  0  0  0
  -18.9006   10.9039  -22.7300 C   0  0  0  0  0  0  0  0  0  0  0  0
  -17.8961   11.8475  -23.3489 C   0  0  0  0  0  0  0  0  0  0  0  0
  -15.7056   11.0308  -26.1789 C   0  0  0  0  0  0  0  0  0  0  0  0
  -16.1578    9.6141  -26.3133 C   0  0  0  0  0  0  0  0  0  0  0  0
  -14.5375   11.4513  -26.8403 C   0  0  0  0  0  0  0  0  0  0  0  0
  -11.3933   14.8219  -28.3001 C   0  0  0  0  0  0  0  0  0  0  0  0
  -10.7716   13.8465  -29.2142 C   0  0  0  0  0  0  0  0  0  0  0  0
   -9.6359   14.2283  -29.9833 N   0  0  0  0  0  0  0  0  0  0  0  0
  -11.2005   12.6784  -29.3498 O   0  0  0  0  0  0  0  0  0  0  0  0
  -10.9965   16.0917  -28.2561 N   0  0  0  0  0  0  0  0  0  0  0  0
  -11.5380   17.0412  -27.4275 C   0  0  0  0  0  0  0  0  0  0  0  0
  -11.0516   18.4299  -27.4430 C   0  0  0  0  0  0  0  0  0  0  0  0
  -10.8960   19.0176  -28.7980 C   0  0  0  0  0  0  0  0  0  0  0  0
  -12.5788   18.1017  -24.4574 C   0  0  0  0  0  0  0  0  0  0  0  0
  -13.7440   18.4804  -23.5027 C   0  0  0  0  0  0  0  0  0  0  0  0
  1  2  2  0
  2  3  1  0
  3  4  2  0
  5  3  1  1
  5  6  1  0
  6  7  1  0
  7  8  1  0
  8  9  1  6
  9 10  2  0
 10 11  1  0
 11 12  1  0
 12 13  1  0
 13 14  2  0
 14 15  1  0
 15 16  2  0
 16 17  1  0
 17 18  1  0
 18 19  1  0
 20 19  1  0
 20 21  1  0
 21 22  1  0
 22 23  1  0
 23 24  1  0
 24 25  1  0
 24 26  1  0
 26 27  1  0
 20 28  1  0
 28 29  1  0
 16 30  1  0
 30 31  1  0
 30 32  2  0
 11 33  2  0
 33 34  1  0
 34 35  1  0
 34 36  2  0
 33 37  1  0
 37 38  2  0
 38 39  1  0
 39 40  1  0
  8 41  1  0
 41 42  1  0
 42  5  1  0
 38  9  1  0
 32 13  1  0
 29 17  1  0
 27 21  1  0
M  CHG  2   5   1  21   1
M  END
$$$$
