CHEMBL4457733_plants_01
     RDKit          3D

 43 47  0  0  1  0  0  0  0  0999 V2000
  -13.5533   14.9980  -25.2435 C   0  0  0  0  0  0  0  0  0  0  0  0
  -13.3207   14.1097  -26.3331 O   0  0  0  0  0  0  0  0  0  0  0  0
  -14.1603   13.0388  -26.6798 C   0  0  0  0  0  0  0  0  0  0  0  0
  -15.1529   12.5601  -25.8044 C   0  0  0  0  0  0  0  0  0  0  0  0
  -15.9995   11.5066  -26.1866 C   0  0  0  0  0  0  0  0  0  0  0  0
  -17.0432   11.0342  -25.3556 C   0  0  0  0  0  0  0  0  0  0  0  0
  -17.3729   11.6473  -24.1378 O   0  0  0  0  0  0  0  0  0  0  0  0
  -17.4617   13.0350  -23.9415 C   0  0  0  0  0  0  0  0  0  0  0  0
  -16.4367   13.7669  -23.3146 C   0  0  0  0  0  0  0  0  0  0  0  0
  -16.5837   15.1371  -23.0885 C   0  0  0  0  0  0  0  0  0  0  0  0
  -17.7515   15.8037  -23.4966 C   0  0  0  0  0  0  0  0  0  0  0  0
  -17.9375   17.2092  -23.2610 N   0  0  0  0  0  0  0  0  0  0  0  0
  -16.6320   18.3518  -23.2524 S   0  0  0  0  0  0  0  0  0  0  0  0
  -17.1468   19.7055  -22.8516 O   0  0  0  0  0  0  0  0  0  0  0  0
  -15.6027   17.9186  -22.2476 O   0  0  0  0  0  0  0  0  0  0  0  0
  -15.8761   18.4042  -24.8462 C   0  0  0  0  0  0  0  0  0  0  0  0
  -15.5927   17.2177  -25.5415 C   0  0  0  0  0  0  0  0  0  0  0  0
  -14.9938   17.2687  -26.8053 C   0  0  0  0  0  0  0  0  0  0  0  0
  -14.7151   16.1212  -27.4705 F   0  0  0  0  0  0  0  0  0  0  0  0
  -14.6829   18.5027  -27.3843 C   0  0  0  0  0  0  0  0  0  0  0  0
  -14.9593   19.6872  -26.6958 C   0  0  0  0  0  0  0  0  0  0  0  0
  -15.5476   19.6409  -25.4271 C   0  0  0  0  0  0  0  0  0  0  0  0
  -15.7938   20.8008  -24.7661 F   0  0  0  0  0  0  0  0  0  0  0  0
  -18.7492   15.0803  -24.1666 C   0  0  0  0  0  0  0  0  0  0  0  0
  -18.6066   13.7068  -24.3854 C   0  0  0  0  0  0  0  0  0  0  0  0
  -19.5963   13.0210  -25.0098 F   0  0  0  0  0  0  0  0  0  0  0  0
  -17.7790    9.9132  -25.7519 C   0  0  0  0  0  0  0  0  0  0  0  0
  -17.5228    9.3155  -26.9859 C   0  0  0  0  0  0  0  0  0  0  0  0
  -16.5547    9.8134  -27.7973 N   0  0  0  0  0  0  0  0  0  0  0  0
  -15.7941   10.8818  -27.4361 C   0  0  0  0  0  0  0  0  0  0  0  0
  -14.8063   11.3529  -28.3048 C   0  0  0  0  0  0  0  0  0  0  0  0
  -13.9862   12.4376  -27.9358 C   0  0  0  0  0  0  0  0  0  0  0  0
  -12.9836   12.9556  -28.7765 O   0  0  0  0  0  0  0  0  0  0  0  0
  -11.6615   13.3437  -28.3913 C   0  0  0  0  0  0  0  0  0  0  0  0
  -10.6914   13.2840  -29.5792 C   0  0  0  0  0  0  0  0  0  0  0  0
   -9.4417   14.1645  -29.3799 C   0  0  0  0  0  0  0  0  0  0  0  0
   -9.1045   14.9480  -30.6027 N   0  0  2  0  0  0  0  0  0  0  0  0
   -8.2342   16.1114  -30.3148 C   0  0  0  0  0  0  0  0  0  0  0  0
   -8.9353   17.2173  -29.4980 C   0  0  0  0  0  0  0  0  0  0  0  0
  -10.4607   17.2406  -29.6766 C   0  0  0  0  0  0  0  0  0  0  0  0
  -10.9015   16.7375  -31.0575 C   0  0  1  0  0  0  0  0  0  0  0  0
  -10.5952   17.7755  -32.1503 C   0  0  0  0  0  0  0  0  0  0  0  0
  -10.3036   15.3407  -31.3992 C   0  0  0  0  0  0  0  0  0  0  0  0
  1  2  1  0
  2  3  1  0
  3  4  2  0
  4  5  1  0
  5  6  2  0
  6  7  1  0
  6 27  1  0
  7  8  1  0
  8  9  2  0
  9 10  1  0
 10 11  2  0
 11 12  1  0
 11 24  1  0
 12 13  1  0
 13 14  2  0
 13 15  2  0
 13 16  1  0
 16 17  2  0
 17 18  1  0
 18 19  1  0
 18 20  2  0
 20 21  1  0
 21 22  2  0
 22 23  1  0
 22 16  1  0
 24 25  2  0
 25 26  1  0
 25  8  1  0
 27 28  2  0
 28 29  1  0
 29 30  2  0
 30 31  1  0
 30  5  1  0
 31 32  2  0
 32 33  1  0
 32  3  1  0
 33 34  1  0
 34 35  1  0
 35 36  1  0
 37 36  1  1
 37 38  1  0
 38 39  1  0
 39 40  1  0
 40 41  1  0
 41 42  1  6
 41 43  1  0
 43 37  1  0
M  CHG  1  37   1
M  END
$$$$
CHEMBL4457733_plants_02
     RDKit          3D

 43 47  0  0  1  0  0  0  0  0999 V2000
  -15.3841   16.3244  -26.8592 C   0  0  0  0  0  0  0  0  0  0  0  0
  -14.8456   15.0216  -27.0665 O   0  0  0  0  0  0  0  0  0  0  0  0
  -15.3916   13.8414  -26.5363 C   0  0  0  0  0  0  0  0  0  0  0  0
  -16.4239   13.8653  -25.5799 C   0  0  0  0  0  0  0  0  0  0  0  0
  -16.9731   12.6703  -25.0868 C   0  0  0  0  0  0  0  0  0  0  0  0
  -18.0476   12.6542  -24.1658 C   0  0  0  0  0  0  0  0  0  0  0  0
  -18.7074   13.8226  -23.7572 O   0  0  0  0  0  0  0  0  0  0  0  0
  -18.0734   15.0496  -23.5031 C   0  0  0  0  0  0  0  0  0  0  0  0
  -18.6459   16.2777  -23.8817 C   0  0  0  0  0  0  0  0  0  0  0  0
  -17.9611   17.4745  -23.6605 C   0  0  0  0  0  0  0  0  0  0  0  0
  -16.6978   17.4674  -23.0449 C   0  0  0  0  0  0  0  0  0  0  0  0
  -15.9625   18.6818  -22.8211 N   0  0  0  0  0  0  0  0  0  0  0  0
  -14.2536   18.8201  -23.0862 S   0  0  0  0  0  0  0  0  0  0  0  0
  -13.7603   20.1284  -22.5355 O   0  0  0  0  0  0  0  0  0  0  0  0
  -13.5498   17.7058  -22.3652 O   0  0  0  0  0  0  0  0  0  0  0  0
  -13.9056   18.6834  -24.8109 C   0  0  0  0  0  0  0  0  0  0  0  0
  -12.9684   17.7481  -25.2782 C   0  0  0  0  0  0  0  0  0  0  0  0
  -12.6991   17.6460  -26.6477 C   0  0  0  0  0  0  0  0  0  0  0  0
  -11.7885   16.7471  -27.0947 F   0  0  0  0  0  0  0  0  0  0  0  0
  -13.3691   18.4698  -27.5571 C   0  0  0  0  0  0  0  0  0  0  0  0
  -14.3006   19.4052  -27.0979 C   0  0  0  0  0  0  0  0  0  0  0  0
  -14.5648   19.5188  -25.7285 C   0  0  0  0  0  0  0  0  0  0  0  0
  -15.4606   20.4442  -25.2992 F   0  0  0  0  0  0  0  0  0  0  0  0
  -16.1531   16.2455  -22.6232 C   0  0  0  0  0  0  0  0  0  0  0  0
  -16.8343   15.0461  -22.8523 C   0  0  0  0  0  0  0  0  0  0  0  0
  -16.2762   13.8731  -22.4620 F   0  0  0  0  0  0  0  0  0  0  0  0
  -18.4748   11.4334  -23.6344 C   0  0  0  0  0  0  0  0  0  0  0  0
  -17.8856   10.2448  -24.0651 C   0  0  0  0  0  0  0  0  0  0  0  0
  -16.8925   10.2717  -24.9905 N   0  0  0  0  0  0  0  0  0  0  0  0
  -16.4251   11.4394  -25.5087 C   0  0  0  0  0  0  0  0  0  0  0  0
  -15.3971   11.4138  -26.4549 C   0  0  0  0  0  0  0  0  0  0  0  0
  -14.8768   12.6135  -26.9795 C   0  0  0  0  0  0  0  0  0  0  0  0
  -13.8487   12.6427  -27.9399 O   0  0  0  0  0  0  0  0  0  0  0  0
  -12.7127   13.5125  -27.9498 C   0  0  0  0  0  0  0  0  0  0  0  0
  -11.7998   13.2286  -29.1505 C   0  0  0  0  0  0  0  0  0  0  0  0
  -10.4322   13.9325  -29.0458 C   0  0  0  0  0  0  0  0  0  0  0  0
  -10.0316   14.5773  -30.3290 N   0  0  2  0  0  0  0  0  0  0  0  0
   -8.6764   15.1723  -30.2716 C   0  0  0  0  0  0  0  0  0  0  0  0
   -8.5813   16.3979  -29.3386 C   0  0  0  0  0  0  0  0  0  0  0  0
   -9.9133   17.1427  -29.1638 C   0  0  0  0  0  0  0  0  0  0  0  0
  -10.8196   17.0294  -30.3966 C   0  0  1  0  0  0  0  0  0  0  0  0
  -10.2976   17.9010  -31.5513 C   0  0  0  0  0  0  0  0  0  0  0  0
  -11.0401   15.5522  -30.8377 C   0  0  0  0  0  0  0  0  0  0  0  0
  1  2  1  0
  2  3  1  0
  3  4  2  0
  4  5  1  0
  5  6  2  0
  6  7  1  0
  6 27  1  0
  7  8  1  0
  8  9  2  0
  9 10  1  0
 10 11  2  0
 11 12  1  0
 11 24  1  0
 12 13  1  0
 13 14  2  0
 13 15  2  0
 13 16  1  0
 16 17  2  0
 17 18  1  0
 18 19  1  0
 18 20  2  0
 20 21  1  0
 21 22  2  0
 22 23  1  0
 22 16  1  0
 24 25  2  0
 25 26  1  0
 25  8  1  0
 27 28  2  0
 28 29  1  0
 29 30  2  0
 30 31  1  0
 30  5  1  0
 31 32  2  0
 32 33  1  0
 32  3  1  0
 33 34  1  0
 34 35  1  0
 35 36  1  0
 37 36  1  1
 37 38  1  0
 38 39  1  0
 39 40  1  0
 40 41  1  0
 41 42  1  6
 41 43  1  0
 43 37  1  0
M  CHG  1  37   1
M  END
$$$$
CHEMBL4457733_plants_03
     RDKit          3D

 43 47  0  0  1  0  0  0  0  0999 V2000
  -15.3240   14.7595  -25.9705 C   0  0  0  0  0  0  0  0  0  0  0  0
  -14.8009   13.7855  -26.8693 O   0  0  0  0  0  0  0  0  0  0  0  0
  -13.6772   13.9810  -27.6886 C   0  0  0  0  0  0  0  0  0  0  0  0
  -12.9426   15.1813  -27.6671 C   0  0  0  0  0  0  0  0  0  0  0  0
  -11.8050   15.3410  -28.4752 C   0  0  0  0  0  0  0  0  0  0  0  0
  -11.0104   16.5117  -28.4413 C   0  0  0  0  0  0  0  0  0  0  0  0
  -11.2402   17.5524  -27.5293 O   0  0  0  0  0  0  0  0  0  0  0  0
  -12.4725   17.8102  -26.9070 C   0  0  0  0  0  0  0  0  0  0  0  0
  -13.5679   18.3412  -27.6124 C   0  0  0  0  0  0  0  0  0  0  0  0
  -14.7607   18.6346  -26.9483 C   0  0  0  0  0  0  0  0  0  0  0  0
  -14.8857   18.3905  -25.5700 C   0  0  0  0  0  0  0  0  0  0  0  0
  -16.0949   18.6994  -24.8573 N   0  0  0  0  0  0  0  0  0  0  0  0
  -16.3193   18.3526  -23.1723 S   0  0  0  0  0  0  0  0  0  0  0  0
  -14.9904   18.3691  -22.4709 O   0  0  0  0  0  0  0  0  0  0  0  0
  -17.1917   19.4122  -22.5615 O   0  0  0  0  0  0  0  0  0  0  0  0
  -17.1178   16.7898  -22.9871 C   0  0  0  0  0  0  0  0  0  0  0  0
  -16.3723   15.6379  -22.6889 C   0  0  0  0  0  0  0  0  0  0  0  0
  -17.0139   14.4028  -22.5430 C   0  0  0  0  0  0  0  0  0  0  0  0
  -16.2904   13.2916  -22.2624 F   0  0  0  0  0  0  0  0  0  0  0  0
  -18.4018   14.3128  -22.6854 C   0  0  0  0  0  0  0  0  0  0  0  0
  -19.1491   15.4551  -22.9857 C   0  0  0  0  0  0  0  0  0  0  0  0
  -18.5107   16.6902  -23.1437 C   0  0  0  0  0  0  0  0  0  0  0  0
  -19.2506   17.7861  -23.4514 F   0  0  0  0  0  0  0  0  0  0  0  0
  -13.8087   17.8140  -24.8806 C   0  0  0  0  0  0  0  0  0  0  0  0
  -12.6111   17.5281  -25.5431 C   0  0  0  0  0  0  0  0  0  0  0  0
  -11.5723   16.9973  -24.8511 F   0  0  0  0  0  0  0  0  0  0  0  0
   -9.9549   16.6485  -29.3482 C   0  0  0  0  0  0  0  0  0  0  0  0
   -9.6558   15.6077  -30.2272 C   0  0  0  0  0  0  0  0  0  0  0  0
  -10.3930   14.4676  -30.2109 N   0  0  0  0  0  0  0  0  0  0  0  0
  -11.4480   14.3066  -29.3674 C   0  0  0  0  0  0  0  0  0  0  0  0
  -12.1788   13.1159  -29.3934 C   0  0  0  0  0  0  0  0  0  0  0  0
  -13.2947   12.9421  -28.5509 C   0  0  0  0  0  0  0  0  0  0  0  0
  -14.0586   11.7604  -28.5317 O   0  0  0  0  0  0  0  0  0  0  0  0
  -14.5905   11.1051  -27.3765 C   0  0  0  0  0  0  0  0  0  0  0  0
  -15.6857   10.0994  -27.7571 C   0  0  0  0  0  0  0  0  0  0  0  0
  -16.8917   10.1317  -26.7971 C   0  0  0  0  0  0  0  0  0  0  0  0
  -17.3768   11.5197  -26.5495 N   0  0  2  0  0  0  0  0  0  0  0  0
  -16.8083   12.1130  -25.3172 C   0  0  0  0  0  0  0  0  0  0  0  0
  -17.3104   11.4407  -24.0221 C   0  0  0  0  0  0  0  0  0  0  0  0
  -18.6914   10.7835  -24.1656 C   0  0  0  0  0  0  0  0  0  0  0  0
  -19.5745   11.4859  -25.2053 C   0  0  1  0  0  0  0  0  0  0  0  0
  -20.0915   12.8338  -24.6748 C   0  0  0  0  0  0  0  0  0  0  0  0
  -18.8638   11.6379  -26.5827 C   0  0  0  0  0  0  0  0  0  0  0  0
  1  2  1  0
  2  3  1  0
  3  4  2  0
  4  5  1  0
  5  6  2  0
  6  7  1  0
  6 27  1  0
  7  8  1  0
  8  9  2  0
  9 10  1  0
 10 11  2  0
 11 12  1  0
 11 24  1  0
 12 13  1  0
 13 14  2  0
 13 15  2  0
 13 16  1  0
 16 17  2  0
 17 18  1  0
 18 19  1  0
 18 20  2  0
 20 21  1  0
 21 22  2  0
 22 23  1  0
 22 16  1  0
 24 25  2  0
 25 26  1  0
 25  8  1  0
 27 28  2  0
 28 29  1  0
 29 30  2  0
 30 31  1  0
 30  5  1  0
 31 32  2  0
 32 33  1  0
 32  3  1  0
 33 34  1  0
 34 35  1  0
 35 36  1  0
 37 36  1  1
 37 38  1  0
 38 39  1  0
 39 40  1  0
 40 41  1  0
 41 42  1  1
 41 43  1  0
 43 37  1  0
M  CHG  1  37   1
M  END
$$$$
CHEMBL4457733_plants_04
     RDKit          3D

 43 47  0  0  1  0  0  0  0  0999 V2000
  -13.3920   15.5483  -26.9639 C   0  0  0  0  0  0  0  0  0  0  0  0
  -13.7168   14.3950  -26.1926 O   0  0  0  0  0  0  0  0  0  0  0  0
  -14.3272   13.2398  -26.7072 C   0  0  0  0  0  0  0  0  0  0  0  0
  -15.5253   12.7317  -26.1713 C   0  0  0  0  0  0  0  0  0  0  0  0
  -16.1315   11.5911  -26.7230 C   0  0  0  0  0  0  0  0  0  0  0  0
  -17.3632   11.0826  -26.2462 C   0  0  0  0  0  0  0  0  0  0  0  0
  -18.1168   11.7357  -25.2597 O   0  0  0  0  0  0  0  0  0  0  0  0
  -17.6946   12.8764  -24.5578 C   0  0  0  0  0  0  0  0  0  0  0  0
  -17.8575   14.1741  -25.0763 C   0  0  0  0  0  0  0  0  0  0  0  0
  -17.3766   15.2810  -24.3737 C   0  0  0  0  0  0  0  0  0  0  0  0
  -16.7362   15.1130  -23.1342 C   0  0  0  0  0  0  0  0  0  0  0  0
  -16.2157   16.2321  -22.3978 N   0  0  0  0  0  0  0  0  0  0  0  0
  -16.3920   17.8772  -22.9196 S   0  0  0  0  0  0  0  0  0  0  0  0
  -17.6225   18.0086  -23.7722 O   0  0  0  0  0  0  0  0  0  0  0  0
  -16.5510   18.7630  -21.7167 O   0  0  0  0  0  0  0  0  0  0  0  0
  -14.9489   18.3799  -23.8024 C   0  0  0  0  0  0  0  0  0  0  0  0
  -14.6585   19.7422  -23.9793 C   0  0  0  0  0  0  0  0  0  0  0  0
  -13.5114   20.1318  -24.6800 C   0  0  0  0  0  0  0  0  0  0  0  0
  -13.2380   21.4477  -24.8551 F   0  0  0  0  0  0  0  0  0  0  0  0
  -12.6454   19.1651  -25.1997 C   0  0  0  0  0  0  0  0  0  0  0  0
  -12.9308   17.8075  -25.0300 C   0  0  0  0  0  0  0  0  0  0  0  0
  -14.0824   17.4130  -24.3399 C   0  0  0  0  0  0  0  0  0  0  0  0
  -14.3522   16.0900  -24.1989 F   0  0  0  0  0  0  0  0  0  0  0  0
  -16.6209   13.8223  -22.5971 C   0  0  0  0  0  0  0  0  0  0  0  0
  -17.0943   12.7127  -23.3041 C   0  0  0  0  0  0  0  0  0  0  0  0
  -16.9469   11.4707  -22.7794 F   0  0  0  0  0  0  0  0  0  0  0  0
  -17.8565    9.8833  -26.7691 C   0  0  0  0  0  0  0  0  0  0  0  0
  -17.1674    9.2385  -27.7962 C   0  0  0  0  0  0  0  0  0  0  0  0
  -16.0149    9.7673  -28.2816 N   0  0  0  0  0  0  0  0  0  0  0  0
  -15.4835   10.9143  -27.7793 C   0  0  0  0  0  0  0  0  0  0  0  0
  -14.2916   11.4147  -28.3098 C   0  0  0  0  0  0  0  0  0  0  0  0
  -13.7079   12.5834  -27.7819 C   0  0  0  0  0  0  0  0  0  0  0  0
  -12.5142   13.1334  -28.2851 O   0  0  0  0  0  0  0  0  0  0  0  0
  -11.6968   12.5927  -29.3273 C   0  0  0  0  0  0  0  0  0  0  0  0
  -11.0423   13.7037  -30.1598 C   0  0  0  0  0  0  0  0  0  0  0  0
   -9.5019   13.6499  -30.1292 C   0  0  0  0  0  0  0  0  0  0  0  0
   -8.8843   14.8751  -30.7126 N   0  0  2  0  0  0  0  0  0  0  0  0
   -8.2563   15.7421  -29.6891 C   0  0  0  0  0  0  0  0  0  0  0  0
   -9.2734   16.4068  -28.7375 C   0  0  0  0  0  0  0  0  0  0  0  0
  -10.6674   16.5881  -29.3565 C   0  0  0  0  0  0  0  0  0  0  0  0
  -10.6182   16.7736  -30.8788 C   0  0  1  0  0  0  0  0  0  0  0  0
  -10.0934   18.1705  -31.2511 C   0  0  0  0  0  0  0  0  0  0  0  0
   -9.8159   15.6434  -31.5891 C   0  0  0  0  0  0  0  0  0  0  0  0
  1  2  1  0
  2  3  1  0
  3  4  2  0
  4  5  1  0
  5  6  2  0
  6  7  1  0
  6 27  1  0
  7  8  1  0
  8  9  2  0
  9 10  1  0
 10 11  2  0
 11 12  1  0
 11 24  1  0
 12 13  1  0
 13 14  2  0
 13 15  2  0
 13 16  1  0
 16 17  2  0
 17 18  1  0
 18 19  1  0
 18 20  2  0
 20 21  1  0
 21 22  2  0
 22 23  1  0
 22 16  1  0
 24 25  2  0
 25 26  1  0
 25  8  1  0
 27 28  2  0
 28 29  1  0
 29 30  2  0
 30 31  1  0
 30  5  1  0
 31 32  2  0
 32 33  1  0
 32  3  1  0
 33 34  1  0
 34 35  1  0
 35 36  1  0
 37 36  1  1
 37 38  1  0
 38 39  1  0
 39 40  1  0
 40 41  1  0
 41 42  1  1
 41 43  1  0
 43 37  1  0
M  CHG  1  37   1
M  END
$$$$
CHEMBL4457733_plants_05
     RDKit          3D

 43 47  0  0  1  0  0  0  0  0999 V2000
  -15.7097   15.1944  -26.1310 C   0  0  0  0  0  0  0  0  0  0  0  0
  -15.2167   16.4501  -26.5896 O   0  0  0  0  0  0  0  0  0  0  0  0
  -13.9586   16.6423  -27.1831 C   0  0  0  0  0  0  0  0  0  0  0  0
  -13.3384   15.6383  -27.9501 C   0  0  0  0  0  0  0  0  0  0  0  0
  -12.0927   15.8658  -28.5577 C   0  0  0  0  0  0  0  0  0  0  0  0
  -11.4636   14.9007  -29.3798 C   0  0  0  0  0  0  0  0  0  0  0  0
  -12.0813   13.6909  -29.7295 O   0  0  0  0  0  0  0  0  0  0  0  0
  -12.8821   12.9253  -28.8665 C   0  0  0  0  0  0  0  0  0  0  0  0
  -14.0582   12.2909  -29.3066 C   0  0  0  0  0  0  0  0  0  0  0  0
  -14.8576   11.5823  -28.4073 C   0  0  0  0  0  0  0  0  0  0  0  0
  -14.4898   11.4832  -27.0546 C   0  0  0  0  0  0  0  0  0  0  0  0
  -15.3024   10.7758  -26.1033 N   0  0  0  0  0  0  0  0  0  0  0  0
  -17.0297   10.6679  -26.2240 S   0  0  0  0  0  0  0  0  0  0  0  0
  -17.4366   10.6600  -27.6706 O   0  0  0  0  0  0  0  0  0  0  0  0
  -17.4900    9.3840  -25.5942 O   0  0  0  0  0  0  0  0  0  0  0  0
  -17.7723   12.0164  -25.3610 C   0  0  0  0  0  0  0  0  0  0  0  0
  -17.0291   12.7694  -24.4380 C   0  0  0  0  0  0  0  0  0  0  0  0
  -17.6258   13.8376  -23.7587 C   0  0  0  0  0  0  0  0  0  0  0  0
  -16.9074   14.5579  -22.8630 F   0  0  0  0  0  0  0  0  0  0  0  0
  -18.9630   14.1644  -24.0032 C   0  0  0  0  0  0  0  0  0  0  0  0
  -19.7091   13.4164  -24.9181 C   0  0  0  0  0  0  0  0  0  0  0  0
  -19.1201   12.3404  -25.5913 C   0  0  0  0  0  0  0  0  0  0  0  0
  -19.8647   11.6148  -26.4643 F   0  0  0  0  0  0  0  0  0  0  0  0
  -13.2906   12.0742  -26.6303 C   0  0  0  0  0  0  0  0  0  0  0  0
  -12.4942   12.7912  -27.5284 C   0  0  0  0  0  0  0  0  0  0  0  0
  -11.3529   13.3791  -27.0907 F   0  0  0  0  0  0  0  0  0  0  0  0
  -10.1764   15.1505  -29.8656 C   0  0  0  0  0  0  0  0  0  0  0  0
   -9.5557   16.3693  -29.5921 C   0  0  0  0  0  0  0  0  0  0  0  0
  -10.1940   17.3081  -28.8474 N   0  0  0  0  0  0  0  0  0  0  0  0
  -11.4329   17.0929  -28.3285 C   0  0  0  0  0  0  0  0  0  0  0  0
  -12.0451   18.0893  -27.5637 C   0  0  0  0  0  0  0  0  0  0  0  0
  -13.3139   17.8737  -26.9903 C   0  0  0  0  0  0  0  0  0  0  0  0
  -13.9773   18.8466  -26.2196 O   0  0  0  0  0  0  0  0  0  0  0  0
  -13.6663   20.2414  -26.1520 C   0  0  0  0  0  0  0  0  0  0  0  0
  -14.5846   20.9732  -25.1636 C   0  0  0  0  0  0  0  0  0  0  0  0
  -16.0231   20.4185  -25.1556 C   0  0  0  0  0  0  0  0  0  0  0  0
  -16.5154   20.1511  -23.7739 N   0  0  2  0  0  0  0  0  0  0  0  0
  -15.4946   19.5035  -22.9182 C   0  0  0  0  0  0  0  0  0  0  0  0
  -15.1601   18.0588  -23.3454 C   0  0  0  0  0  0  0  0  0  0  0  0
  -16.3054   17.3567  -24.0903 C   0  0  0  0  0  0  0  0  0  0  0  0
  -17.6883   17.8601  -23.6565 C   0  0  1  0  0  0  0  0  0  0  0  0
  -18.0576   17.3335  -22.2594 C   0  0  0  0  0  0  0  0  0  0  0  0
  -17.8102   19.4103  -23.7437 C   0  0  0  0  0  0  0  0  0  0  0  0
  1  2  1  0
  2  3  1  0
  3  4  2  0
  4  5  1  0
  5  6  2  0
  6  7  1  0
  6 27  1  0
  7  8  1  0
  8  9  2  0
  9 10  1  0
 10 11  2  0
 11 12  1  0
 11 24  1  0
 12 13  1  0
 13 14  2  0
 13 15  2  0
 13 16  1  0
 16 17  2  0
 17 18  1  0
 18 19  1  0
 18 20  2  0
 20 21  1  0
 21 22  2  0
 22 23  1  0
 22 16  1  0
 24 25  2  0
 25 26  1  0
 25  8  1  0
 27 28  2  0
 28 29  1  0
 29 30  2  0
 30 31  1  0
 30  5  1  0
 31 32  2  0
 32 33  1  0
 32  3  1  0
 33 34  1  0
 34 35  1  0
 35 36  1  0
 37 36  1  6
 37 38  1  0
 38 39  1  0
 39 40  1  0
 40 41  1  0
 41 42  1  1
 41 43  1  0
 43 37  1  0
M  CHG  1  37   1
M  END
$$$$
CHEMBL4457733_plants_06
     RDKit          3D

 43 47  0  0  1  0  0  0  0  0999 V2000
  -13.7873   15.3352  -26.7142 C   0  0  0  0  0  0  0  0  0  0  0  0
  -14.3423   14.3508  -27.5820 O   0  0  0  0  0  0  0  0  0  0  0  0
  -15.0539   13.2198  -27.1503 C   0  0  0  0  0  0  0  0  0  0  0  0
  -16.0762   13.3089  -26.1870 C   0  0  0  0  0  0  0  0  0  0  0  0
  -16.7931   12.1670  -25.7936 C   0  0  0  0  0  0  0  0  0  0  0  0
  -17.8626   12.2257  -24.8686 C   0  0  0  0  0  0  0  0  0  0  0  0
  -18.3500   13.4371  -24.3561 O   0  0  0  0  0  0  0  0  0  0  0  0
  -17.5470   14.4586  -23.8234 C   0  0  0  0  0  0  0  0  0  0  0  0
  -16.2493   14.2116  -23.3391 C   0  0  0  0  0  0  0  0  0  0  0  0
  -15.5006   15.2423  -22.7672 C   0  0  0  0  0  0  0  0  0  0  0  0
  -16.0293   16.5415  -22.6806 C   0  0  0  0  0  0  0  0  0  0  0  0
  -15.2886   17.6173  -22.0810 N   0  0  0  0  0  0  0  0  0  0  0  0
  -15.1044   19.1739  -22.8245 S   0  0  0  0  0  0  0  0  0  0  0  0
  -16.4318   19.8775  -22.8612 O   0  0  0  0  0  0  0  0  0  0  0  0
  -14.1508   20.0011  -22.0100 O   0  0  0  0  0  0  0  0  0  0  0  0
  -14.4396   18.9833  -24.4482 C   0  0  0  0  0  0  0  0  0  0  0  0
  -15.0479   19.6111  -25.5470 C   0  0  0  0  0  0  0  0  0  0  0  0
  -14.5135   19.4552  -26.8309 C   0  0  0  0  0  0  0  0  0  0  0  0
  -15.1074   20.0566  -27.8904 F   0  0  0  0  0  0  0  0  0  0  0  0
  -13.3660   18.6799  -27.0231 C   0  0  0  0  0  0  0  0  0  0  0  0
  -12.7579   18.0496  -25.9339 C   0  0  0  0  0  0  0  0  0  0  0  0
  -13.2951   18.1933  -24.6499 C   0  0  0  0  0  0  0  0  0  0  0  0
  -12.7008   17.5605  -23.6063 F   0  0  0  0  0  0  0  0  0  0  0  0
  -17.3032   16.7945  -23.2104 C   0  0  0  0  0  0  0  0  0  0  0  0
  -18.0569   15.7612  -23.7752 C   0  0  0  0  0  0  0  0  0  0  0  0
  -19.2982   16.0220  -24.2557 F   0  0  0  0  0  0  0  0  0  0  0  0
  -18.4626   11.0376  -24.4401 C   0  0  0  0  0  0  0  0  0  0  0  0
  -18.0479    9.8183  -24.9758 C   0  0  0  0  0  0  0  0  0  0  0  0
  -17.0573    9.7822  -25.9035 N   0  0  0  0  0  0  0  0  0  0  0  0
  -16.4252   10.9110  -26.3237 C   0  0  0  0  0  0  0  0  0  0  0  0
  -15.4076   10.8199  -27.2769 C   0  0  0  0  0  0  0  0  0  0  0  0
  -14.7185   11.9734  -27.7011 C   0  0  0  0  0  0  0  0  0  0  0  0
  -13.6927   11.9376  -28.6639 O   0  0  0  0  0  0  0  0  0  0  0  0
  -12.9357   13.0509  -29.1480 C   0  0  0  0  0  0  0  0  0  0  0  0
  -11.5373   13.0947  -28.5170 C   0  0  0  0  0  0  0  0  0  0  0  0
  -11.0932   14.5215  -28.1377 C   0  0  0  0  0  0  0  0  0  0  0  0
  -11.3759   15.5056  -29.2214 N   0  0  2  0  0  0  0  0  0  0  0  0
  -10.7482   15.1333  -30.5103 C   0  0  0  0  0  0  0  0  0  0  0  0
   -9.2075   15.2208  -30.4925 C   0  0  0  0  0  0  0  0  0  0  0  0
   -8.6602   16.2250  -29.4670 C   0  0  0  0  0  0  0  0  0  0  0  0
   -9.6221   17.3930  -29.2127 C   0  0  1  0  0  0  0  0  0  0  0  0
   -9.6374   18.3685  -30.4017 C   0  0  0  0  0  0  0  0  0  0  0  0
  -11.0550   16.9115  -28.8380 C   0  0  0  0  0  0  0  0  0  0  0  0
  1  2  1  0
  2  3  1  0
  3  4  2  0
  4  5  1  0
  5  6  2  0
  6  7  1  0
  6 27  1  0
  7  8  1  0
  8  9  2  0
  9 10  1  0
 10 11  2  0
 11 12  1  0
 11 24  1  0
 12 13  1  0
 13 14  2  0
 13 15  2  0
 13 16  1  0
 16 17  2  0
 17 18  1  0
 18 19  1  0
 18 20  2  0
 20 21  1  0
 21 22  2  0
 22 23  1  0
 22 16  1  0
 24 25  2  0
 25 26  1  0
 25  8  1  0
 27 28  2  0
 28 29  1  0
 29 30  2  0
 30 31  1  0
 30  5  1  0
 31 32  2  0
 32 33  1  0
 32  3  1  0
 33 34  1  0
 34 35  1  0
 35 36  1  0
 37 36  1  1
 37 38  1  0
 38 39  1  0
 39 40  1  0
 40 41  1  0
 41 42  1  6
 41 43  1  0
 43 37  1  0
M  CHG  1  37   1
M  END
$$$$
CHEMBL4457733_plants_07
     RDKit          3D

 43 47  0  0  1  0  0  0  0  0999 V2000
  -13.8184   14.7445  -24.9012 C   0  0  0  0  0  0  0  0  0  0  0  0
  -13.9399   14.5391  -26.3060 O   0  0  0  0  0  0  0  0  0  0  0  0
  -14.4103   13.3564  -26.8994 C   0  0  0  0  0  0  0  0  0  0  0  0
  -15.5086   12.6490  -26.3758 C   0  0  0  0  0  0  0  0  0  0  0  0
  -15.9781   11.4844  -27.0051 C   0  0  0  0  0  0  0  0  0  0  0  0
  -17.1119   10.7767  -26.5396 C   0  0  0  0  0  0  0  0  0  0  0  0
  -17.9074   11.2402  -25.4813 O   0  0  0  0  0  0  0  0  0  0  0  0
  -17.6141   12.3678  -24.6973 C   0  0  0  0  0  0  0  0  0  0  0  0
  -17.9970   13.6653  -25.0838 C   0  0  0  0  0  0  0  0  0  0  0  0
  -17.6409   14.7684  -24.3050 C   0  0  0  0  0  0  0  0  0  0  0  0
  -16.9074   14.5943  -23.1190 C   0  0  0  0  0  0  0  0  0  0  0  0
  -16.5118   15.7126  -22.3075 N   0  0  0  0  0  0  0  0  0  0  0  0
  -16.9736   17.3485  -22.6544 S   0  0  0  0  0  0  0  0  0  0  0  0
  -18.4274   17.3948  -23.0319 O   0  0  0  0  0  0  0  0  0  0  0  0
  -16.7750   18.1894  -21.4255 O   0  0  0  0  0  0  0  0  0  0  0  0
  -15.9592   17.9921  -23.9472 C   0  0  0  0  0  0  0  0  0  0  0  0
  -14.6496   17.5199  -24.1295 C   0  0  0  0  0  0  0  0  0  0  0  0
  -13.8525   18.0354  -25.1577 C   0  0  0  0  0  0  0  0  0  0  0  0
  -12.5862   17.5825  -25.3262 F   0  0  0  0  0  0  0  0  0  0  0  0
  -14.3607   19.0174  -26.0133 C   0  0  0  0  0  0  0  0  0  0  0  0
  -15.6623   19.4941  -25.8349 C   0  0  0  0  0  0  0  0  0  0  0  0
  -16.4592   18.9899  -24.8011 C   0  0  0  0  0  0  0  0  0  0  0  0
  -17.7153   19.4764  -24.6326 F   0  0  0  0  0  0  0  0  0  0  0  0
  -16.5715   13.2950  -22.7111 C   0  0  0  0  0  0  0  0  0  0  0  0
  -16.9201   12.1908  -23.4948 C   0  0  0  0  0  0  0  0  0  0  0  0
  -16.5603   10.9453  -23.0961 F   0  0  0  0  0  0  0  0  0  0  0  0
  -17.4606    9.5671  -27.1481 C   0  0  0  0  0  0  0  0  0  0  0  0
  -16.7317    9.1062  -28.2444 C   0  0  0  0  0  0  0  0  0  0  0  0
  -15.6794    9.8238  -28.7146 N   0  0  0  0  0  0  0  0  0  0  0  0
  -15.2867   10.9886  -28.1319 C   0  0  0  0  0  0  0  0  0  0  0  0
  -14.1933   11.6872  -28.6506 C   0  0  0  0  0  0  0  0  0  0  0  0
  -13.7507   12.8784  -28.0420 C   0  0  0  0  0  0  0  0  0  0  0  0
  -12.6612   13.6240  -28.5293 O   0  0  0  0  0  0  0  0  0  0  0  0
  -12.7111   14.9307  -29.1097 C   0  0  0  0  0  0  0  0  0  0  0  0
  -12.0400   15.9723  -28.2039 C   0  0  0  0  0  0  0  0  0  0  0  0
  -11.8043   17.3217  -28.9113 C   0  0  0  0  0  0  0  0  0  0  0  0
  -10.3588   17.5733  -29.1763 N   0  0  2  0  0  0  0  0  0  0  0  0
  -10.0459   17.6429  -30.6223 C   0  0  0  0  0  0  0  0  0  0  0  0
  -10.1993   16.2911  -31.3510 C   0  0  0  0  0  0  0  0  0  0  0  0
  -10.0114   15.0732  -30.4340 C   0  0  0  0  0  0  0  0  0  0  0  0
   -9.0539   15.3536  -29.2683 C   0  0  1  0  0  0  0  0  0  0  0  0
   -7.5952   15.4185  -29.7515 C   0  0  0  0  0  0  0  0  0  0  0  0
   -9.4558   16.6240  -28.4622 C   0  0  0  0  0  0  0  0  0  0  0  0
  1  2  1  0
  2  3  1  0
  3  4  2  0
  4  5  1  0
  5  6  2  0
  6  7  1  0
  6 27  1  0
  7  8  1  0
  8  9  2  0
  9 10  1  0
 10 11  2  0
 11 12  1  0
 11 24  1  0
 12 13  1  0
 13 14  2  0
 13 15  2  0
 13 16  1  0
 16 17  2  0
 17 18  1  0
 18 19  1  0
 18 20  2  0
 20 21  1  0
 21 22  2  0
 22 23  1  0
 22 16  1  0
 24 25  2  0
 25 26  1  0
 25  8  1  0
 27 28  2  0
 28 29  1  0
 29 30  2  0
 30 31  1  0
 30  5  1  0
 31 32  2  0
 32 33  1  0
 32  3  1  0
 33 34  1  0
 34 35  1  0
 35 36  1  0
 37 36  1  6
 37 38  1  0
 38 39  1  0
 39 40  1  0
 40 41  1  0
 41 42  1  6
 41 43  1  0
 43 37  1  0
M  CHG  1  37   1
M  END
$$$$
CHEMBL4457733_plants_08
     RDKit          3D

 43 47  0  0  1  0  0  0  0  0999 V2000
  -15.5955   14.3117  -22.6518 C   0  0  0  0  0  0  0  0  0  0  0  0
  -16.5835   15.3327  -22.5434 O   0  0  0  0  0  0  0  0  0  0  0  0
  -16.4531   16.6258  -23.0754 C   0  0  0  0  0  0  0  0  0  0  0  0
  -15.2174   17.1183  -23.5349 C   0  0  0  0  0  0  0  0  0  0  0  0
  -15.1192   18.4048  -24.0899 C   0  0  0  0  0  0  0  0  0  0  0  0
  -13.9061   18.9140  -24.6115 C   0  0  0  0  0  0  0  0  0  0  0  0
  -12.7414   18.1378  -24.7050 O   0  0  0  0  0  0  0  0  0  0  0  0
  -12.6364   16.9413  -25.4327 C   0  0  0  0  0  0  0  0  0  0  0  0
  -12.3679   15.7095  -24.8083 C   0  0  0  0  0  0  0  0  0  0  0  0
  -12.2173   14.5491  -25.5704 C   0  0  0  0  0  0  0  0  0  0  0  0
  -12.3455   14.5955  -26.9691 C   0  0  0  0  0  0  0  0  0  0  0  0
  -12.1779   13.4208  -27.7799 N   0  0  0  0  0  0  0  0  0  0  0  0
  -11.8159   13.4807  -29.4755 S   0  0  0  0  0  0  0  0  0  0  0  0
  -11.2519   12.1605  -29.9197 O   0  0  0  0  0  0  0  0  0  0  0  0
  -13.0817   13.7385  -30.2424 O   0  0  0  0  0  0  0  0  0  0  0  0
  -10.6848   14.7968  -29.7968 C   0  0  0  0  0  0  0  0  0  0  0  0
  -11.1543   16.0681  -30.1638 C   0  0  0  0  0  0  0  0  0  0  0  0
  -10.2503   17.1062  -30.4160 C   0  0  0  0  0  0  0  0  0  0  0  0
  -10.7067   18.3303  -30.7771 F   0  0  0  0  0  0  0  0  0  0  0  0
   -8.8754   16.8832  -30.2951 C   0  0  0  0  0  0  0  0  0  0  0  0
   -8.4017   15.6190  -29.9335 C   0  0  0  0  0  0  0  0  0  0  0  0
   -9.3012   14.5749  -29.6915 C   0  0  0  0  0  0  0  0  0  0  0  0
   -8.8225   13.3493  -29.3573 F   0  0  0  0  0  0  0  0  0  0  0  0
  -12.6633   15.8160  -27.5832 C   0  0  0  0  0  0  0  0  0  0  0  0
  -12.8056   16.9798  -26.8215 C   0  0  0  0  0  0  0  0  0  0  0  0
  -13.0847   18.1549  -27.4387 F   0  0  0  0  0  0  0  0  0  0  0  0
  -13.8536   20.2404  -25.0509 C   0  0  0  0  0  0  0  0  0  0  0  0
  -15.0076   21.0236  -25.0330 C   0  0  0  0  0  0  0  0  0  0  0  0
  -16.1778   20.5043  -24.5807 N   0  0  0  0  0  0  0  0  0  0  0  0
  -16.2651   19.2295  -24.1141 C   0  0  0  0  0  0  0  0  0  0  0  0
  -17.4919   18.7438  -23.6543 C   0  0  0  0  0  0  0  0  0  0  0  0
  -17.5963   17.4373  -23.1369 C   0  0  0  0  0  0  0  0  0  0  0  0
  -18.8088   16.8974  -22.6694 O   0  0  0  0  0  0  0  0  0  0  0  0
  -19.8767   16.3773  -23.4670 C   0  0  0  0  0  0  0  0  0  0  0  0
  -19.8916   14.8426  -23.4517 C   0  0  0  0  0  0  0  0  0  0  0  0
  -18.6098   14.2228  -24.0430 C   0  0  0  0  0  0  0  0  0  0  0  0
  -18.6153   12.7341  -23.9617 N   0  0  2  0  0  0  0  0  0  0  0  0
  -17.2513   12.1581  -23.9262 C   0  0  0  0  0  0  0  0  0  0  0  0
  -16.4757   12.3306  -25.2492 C   0  0  0  0  0  0  0  0  0  0  0  0
  -17.3830   12.4531  -26.4826 C   0  0  0  0  0  0  0  0  0  0  0  0
  -18.7081   11.6974  -26.3186 C   0  0  1  0  0  0  0  0  0  0  0  0
  -18.4971   10.1775  -26.4237 C   0  0  0  0  0  0  0  0  0  0  0  0
  -19.4580   12.0906  -25.0115 C   0  0  0  0  0  0  0  0  0  0  0  0
  1  2  1  0
  2  3  1  0
  3  4  2  0
  4  5  1  0
  5  6  2  0
  6  7  1  0
  6 27  1  0
  7  8  1  0
  8  9  2  0
  9 10  1  0
 10 11  2  0
 11 12  1  0
 11 24  1  0
 12 13  1  0
 13 14  2  0
 13 15  2  0
 13 16  1  0
 16 17  2  0
 17 18  1  0
 18 19  1  0
 18 20  2  0
 20 21  1  0
 21 22  2  0
 22 23  1  0
 22 16  1  0
 24 25  2  0
 25 26  1  0
 25  8  1  0
 27 28  2  0
 28 29  1  0
 29 30  2  0
 30 31  1  0
 30  5  1  0
 31 32  2  0
 32 33  1  0
 32  3  1  0
 33 34  1  0
 34 35  1  0
 35 36  1  0
 37 36  1  6
 37 38  1  0
 38 39  1  0
 39 40  1  0
 40 41  1  0
 41 42  1  1
 41 43  1  0
 43 37  1  0
M  CHG  1  37   1
M  END
$$$$
CHEMBL4457733_plants_09
     RDKit          3D

 43 47  0  0  1  0  0  0  0  0999 V2000
  -11.7200   13.1712  -25.7065 C   0  0  0  0  0  0  0  0  0  0  0  0
  -12.8535   13.4137  -26.5351 O   0  0  0  0  0  0  0  0  0  0  0  0
  -13.6998   12.4126  -27.0387 C   0  0  0  0  0  0  0  0  0  0  0  0
  -14.8163   11.9518  -26.3163 C   0  0  0  0  0  0  0  0  0  0  0  0
  -15.6643   10.9701  -26.8549 C   0  0  0  0  0  0  0  0  0  0  0  0
  -16.8256   10.5208  -26.1823 C   0  0  0  0  0  0  0  0  0  0  0  0
  -17.2693   11.0926  -24.9807 O   0  0  0  0  0  0  0  0  0  0  0  0
  -17.1008   12.4417  -24.6292 C   0  0  0  0  0  0  0  0  0  0  0  0
  -16.1213   12.8559  -23.7080 C   0  0  0  0  0  0  0  0  0  0  0  0
  -16.0187   14.1997  -23.3424 C   0  0  0  0  0  0  0  0  0  0  0  0
  -16.8838   15.1563  -23.9002 C   0  0  0  0  0  0  0  0  0  0  0  0
  -16.8128   16.5430  -23.5290 N   0  0  0  0  0  0  0  0  0  0  0  0
  -15.3159   17.3877  -23.2931 S   0  0  0  0  0  0  0  0  0  0  0  0
  -15.4001   18.2297  -22.0513 O   0  0  0  0  0  0  0  0  0  0  0  0
  -14.2076   16.3892  -23.1156 O   0  0  0  0  0  0  0  0  0  0  0  0
  -14.9608   18.3772  -24.7106 C   0  0  0  0  0  0  0  0  0  0  0  0
  -14.6086   19.7288  -24.5677 C   0  0  0  0  0  0  0  0  0  0  0  0
  -14.3278   20.5059  -25.6972 C   0  0  0  0  0  0  0  0  0  0  0  0
  -13.9952   21.8123  -25.5561 F   0  0  0  0  0  0  0  0  0  0  0  0
  -14.3888   19.9365  -26.9726 C   0  0  0  0  0  0  0  0  0  0  0  0
  -14.7422   18.5925  -27.1216 C   0  0  0  0  0  0  0  0  0  0  0  0
  -15.0349   17.8145  -25.9961 C   0  0  0  0  0  0  0  0  0  0  0  0
  -15.3922   16.5152  -26.1610 F   0  0  0  0  0  0  0  0  0  0  0  0
  -17.8253   14.7472  -24.8561 C   0  0  0  0  0  0  0  0  0  0  0  0
  -17.9345   13.4006  -25.2161 C   0  0  0  0  0  0  0  0  0  0  0  0
  -18.8712   13.0224  -26.1213 F   0  0  0  0  0  0  0  0  0  0  0  0
  -17.5656    9.4659  -26.7253 C   0  0  0  0  0  0  0  0  0  0  0  0
  -17.1919    8.9146  -27.9508 C   0  0  0  0  0  0  0  0  0  0  0  0
  -16.1065    9.3929  -28.6116 N   0  0  0  0  0  0  0  0  0  0  0  0
  -15.3405   10.3955  -28.1034 C   0  0  0  0  0  0  0  0  0  0  0  0
  -14.2299   10.8487  -28.8201 C   0  0  0  0  0  0  0  0  0  0  0  0
  -13.4050   11.8637  -28.2961 C   0  0  0  0  0  0  0  0  0  0  0  0
  -12.2807   12.3615  -28.9806 O   0  0  0  0  0  0  0  0  0  0  0  0
  -11.5554   13.5568  -28.6773 C   0  0  0  0  0  0  0  0  0  0  0  0
  -12.3757   14.8102  -29.0114 C   0  0  0  0  0  0  0  0  0  0  0  0
  -12.0471   15.3911  -30.4012 C   0  0  0  0  0  0  0  0  0  0  0  0
  -11.7217   16.8449  -30.3409 N   0  0  2  0  0  0  0  0  0  0  0  0
  -11.1079   17.3461  -31.5922 C   0  0  0  0  0  0  0  0  0  0  0  0
   -9.6931   16.7864  -31.8509 C   0  0  0  0  0  0  0  0  0  0  0  0
   -8.9503   16.3760  -30.5706 C   0  0  0  0  0  0  0  0  0  0  0  0
   -9.3705   17.2076  -29.3516 C   0  0  1  0  0  0  0  0  0  0  0  0
   -8.7922   18.6309  -29.4245 C   0  0  0  0  0  0  0  0  0  0  0  0
  -10.9138   17.2178  -29.1431 C   0  0  0  0  0  0  0  0  0  0  0  0
  1  2  1  0
  2  3  1  0
  3  4  2  0
  4  5  1  0
  5  6  2  0
  6  7  1  0
  6 27  1  0
  7  8  1  0
  8  9  2  0
  9 10  1  0
 10 11  2  0
 11 12  1  0
 11 24  1  0
 12 13  1  0
 13 14  2  0
 13 15  2  0
 13 16  1  0
 16 17  2  0
 17 18  1  0
 18 19  1  0
 18 20  2  0
 20 21  1  0
 21 22  2  0
 22 23  1  0
 22 16  1  0
 24 25  2  0
 25 26  1  0
 25  8  1  0
 27 28  2  0
 28 29  1  0
 29 30  2  0
 30 31  1  0
 30  5  1  0
 31 32  2  0
 32 33  1  0
 32  3  1  0
 33 34  1  0
 34 35  1  0
 35 36  1  0
 37 36  1  6
 37 38  1  0
 38 39  1  0
 39 40  1  0
 40 41  1  0
 41 42  1  6
 41 43  1  0
 43 37  1  0
M  CHG  1  37   1
M  END
$$$$
CHEMBL4457733_plants_10
     RDKit          3D

 43 47  0  0  1  0  0  0  0  0999 V2000
  -18.0648   18.9522  -23.8924 C   0  0  0  0  0  0  0  0  0  0  0  0
  -17.2289   17.9040  -24.3749 O   0  0  0  0  0  0  0  0  0  0  0  0
  -17.0486   16.6695  -23.7302 C   0  0  0  0  0  0  0  0  0  0  0  0
  -17.0908   15.4514  -24.4339 C   0  0  0  0  0  0  0  0  0  0  0  0
  -16.8783   14.2317  -23.7706 C   0  0  0  0  0  0  0  0  0  0  0  0
  -16.8596   12.9919  -24.4529 C   0  0  0  0  0  0  0  0  0  0  0  0
  -16.9502   12.8989  -25.8496 O   0  0  0  0  0  0  0  0  0  0  0  0
  -15.8490   12.8045  -26.7160 C   0  0  0  0  0  0  0  0  0  0  0  0
  -15.7663   11.8145  -27.7122 C   0  0  0  0  0  0  0  0  0  0  0  0
  -14.6313   11.7183  -28.5200 C   0  0  0  0  0  0  0  0  0  0  0  0
  -13.5640   12.6177  -28.3565 C   0  0  0  0  0  0  0  0  0  0  0  0
  -12.3764   12.5311  -29.1613 N   0  0  0  0  0  0  0  0  0  0  0  0
  -10.9324   13.4314  -28.8236 S   0  0  0  0  0  0  0  0  0  0  0  0
  -10.6509   13.4017  -27.3477 O   0  0  0  0  0  0  0  0  0  0  0  0
   -9.7749   12.7964  -29.5406 O   0  0  0  0  0  0  0  0  0  0  0  0
  -11.1140   15.0881  -29.4040 C   0  0  0  0  0  0  0  0  0  0  0  0
  -10.7771   15.4227  -30.7253 C   0  0  0  0  0  0  0  0  0  0  0  0
  -10.9251   16.7389  -31.1773 C   0  0  0  0  0  0  0  0  0  0  0  0
  -10.5920   17.0599  -32.4513 F   0  0  0  0  0  0  0  0  0  0  0  0
  -11.4173   17.7245  -30.3165 C   0  0  0  0  0  0  0  0  0  0  0  0
  -11.7512   17.3984  -28.9991 C   0  0  0  0  0  0  0  0  0  0  0  0
  -11.5943   16.0862  -28.5393 C   0  0  0  0  0  0  0  0  0  0  0  0
  -11.9081   15.7913  -27.2518 F   0  0  0  0  0  0  0  0  0  0  0  0
  -13.6720   13.6347  -27.3964 C   0  0  0  0  0  0  0  0  0  0  0  0
  -14.8043   13.7261  -26.5813 C   0  0  0  0  0  0  0  0  0  0  0  0
  -14.8757   14.6999  -25.6398 F   0  0  0  0  0  0  0  0  0  0  0  0
  -16.7497   11.8078  -23.7173 C   0  0  0  0  0  0  0  0  0  0  0  0
  -16.5933   11.8631  -22.3324 C   0  0  0  0  0  0  0  0  0  0  0  0
  -16.5579   13.0625  -21.6971 N   0  0  0  0  0  0  0  0  0  0  0  0
  -16.6939   14.2364  -22.3707 C   0  0  0  0  0  0  0  0  0  0  0  0
  -16.6560   15.4445  -21.6697 C   0  0  0  0  0  0  0  0  0  0  0  0
  -16.8274   16.6696  -22.3444 C   0  0  0  0  0  0  0  0  0  0  0  0
  -16.7893   17.9134  -21.6874 O   0  0  0  0  0  0  0  0  0  0  0  0
  -15.6536   18.5120  -21.0560 C   0  0  0  0  0  0  0  0  0  0  0  0
  -14.4383   18.5345  -21.9932 C   0  0  0  0  0  0  0  0  0  0  0  0
  -14.1608   19.9309  -22.5846 C   0  0  0  0  0  0  0  0  0  0  0  0
  -13.3759   19.8601  -23.8503 N   0  0  2  0  0  0  0  0  0  0  0  0
  -13.4037   21.1297  -24.6125 C   0  0  0  0  0  0  0  0  0  0  0  0
  -14.7909   21.4646  -25.2001 C   0  0  0  0  0  0  0  0  0  0  0  0
  -15.6661   20.2281  -25.4542 C   0  0  0  0  0  0  0  0  0  0  0  0
  -14.8401   18.9761  -25.7772 C   0  0  1  0  0  0  0  0  0  0  0  0
  -14.2504   19.0508  -27.1957 C   0  0  0  0  0  0  0  0  0  0  0  0
  -13.7444   18.6951  -24.7067 C   0  0  0  0  0  0  0  0  0  0  0  0
  1  2  1  0
  2  3  1  0
  3  4  2  0
  4  5  1  0
  5  6  2  0
  6  7  1  0
  6 27  1  0
  7  8  1  0
  8  9  2  0
  9 10  1  0
 10 11  2  0
 11 12  1  0
 11 24  1  0
 12 13  1  0
 13 14  2  0
 13 15  2  0
 13 16  1  0
 16 17  2  0
 17 18  1  0
 18 19  1  0
 18 20  2  0
 20 21  1  0
 21 22  2  0
 22 23  1  0
 22 16  1  0
 24 25  2  0
 25 26  1  0
 25  8  1  0
 27 28  2  0
 28 29  1  0
 29 30  2  0
 30 31  1  0
 30  5  1  0
 31 32  2  0
 32 33  1  0
 32  3  1  0
 33 34  1  0
 34 35  1  0
 35 36  1  0
 37 36  1  1
 37 38  1  0
 38 39  1  0
 39 40  1  0
 40 41  1  0
 41 42  1  6
 41 43  1  0
 43 37  1  0
M  CHG  1  37   1
M  END
$$$$
CHEMBL4164936_plants_01
     RDKit          3D

 39 43  0  0  0  0  0  0  0  0999 V2000
   -9.0875   14.9389  -31.9075 N   0  0  0  0  0  0  0  0  0  0  0  0
   -9.8466   16.3505  -31.2623 S   0  0  0  0  0  0  0  0  0  0  0  0
   -8.7920   17.3110  -30.7890 O   0  0  0  0  0  0  0  0  0  0  0  0
  -10.6616   17.0189  -32.3338 O   0  0  0  0  0  0  0  0  0  0  0  0
  -10.8904   15.8948  -29.9199 C   0  0  0  0  0  0  0  0  0  0  0  0
  -11.3511   14.5766  -29.8070 C   0  0  0  0  0  0  0  0  0  0  0  0
  -12.1678   14.2062  -28.7353 C   0  0  0  0  0  0  0  0  0  0  0  0
  -12.5195   15.1459  -27.7533 C   0  0  0  0  0  0  0  0  0  0  0  0
  -13.3718   14.7677  -26.6517 N   0  0  0  0  0  0  0  0  0  0  0  0
  -13.2922   13.5092  -26.1042 C   0  0  0  0  0  0  0  0  0  0  0  0
  -12.2005   12.2402  -26.7798 S   0  0  0  0  0  0  0  0  0  0  0  0
  -13.4142   11.5614  -27.9706 C   0  0  0  0  0  0  0  0  0  0  0  0
  -14.7408   11.2499  -27.3457 C   0  0  0  0  0  0  0  0  0  0  0  0
  -14.9655   10.1012  -26.8774 O   0  0  0  0  0  0  0  0  0  0  0  0
  -15.7076   12.2955  -27.1805 N   0  0  0  0  0  0  0  0  0  0  0  0
  -17.0100   12.0420  -26.6434 C   0  0  0  0  0  0  0  0  0  0  0  0
  -17.5915   12.9772  -25.7784 C   0  0  0  0  0  0  0  0  0  0  0  0
  -18.8584   12.7455  -25.2309 C   0  0  0  0  0  0  0  0  0  0  0  0
  -19.5429   13.9368  -24.1335 Cl  0  0  0  0  0  0  0  0  0  0  0  0
  -19.5577   11.5727  -25.5616 C   0  0  0  0  0  0  0  0  0  0  0  0
  -21.1514   11.2430  -24.8959 Cl  0  0  0  0  0  0  0  0  0  0  0  0
  -18.9878   10.6489  -26.4448 C   0  0  0  0  0  0  0  0  0  0  0  0
  -17.7210   10.8804  -26.9918 C   0  0  0  0  0  0  0  0  0  0  0  0
  -17.0780    9.7412  -28.1650 Cl  0  0  0  0  0  0  0  0  0  0  0  0
  -14.0422   13.1885  -25.0194 N   0  0  0  0  0  0  0  0  0  0  0  0
  -14.9074   14.0705  -24.4657 C   0  0  0  0  0  0  0  0  0  0  0  0
  -15.6761   13.6904  -23.3609 C   0  0  0  0  0  0  0  0  0  0  0  0
  -16.5820   14.5938  -22.7874 C   0  0  0  0  0  0  0  0  0  0  0  0
  -17.3603   14.2197  -21.6806 C   0  0  0  0  0  0  0  0  0  0  0  0
  -18.2610   15.1279  -21.1169 C   0  0  0  0  0  0  0  0  0  0  0  0
  -18.3919   16.4123  -21.6513 C   0  0  0  0  0  0  0  0  0  0  0  0
  -17.6230   16.7976  -22.7532 C   0  0  0  0  0  0  0  0  0  0  0  0
  -16.7145   15.8954  -23.3296 C   0  0  0  0  0  0  0  0  0  0  0  0
  -15.9385   16.2722  -24.4364 C   0  0  0  0  0  0  0  0  0  0  0  0
  -15.0326   15.3609  -25.0100 C   0  0  0  0  0  0  0  0  0  0  0  0
  -14.2314   15.6950  -26.1160 C   0  0  0  0  0  0  0  0  0  0  0  0
  -14.2973   16.8575  -26.6079 O   0  0  0  0  0  0  0  0  0  0  0  0
  -12.0662   16.4691  -27.8763 C   0  0  0  0  0  0  0  0  0  0  0  0
  -11.2496   16.8392  -28.9486 C   0  0  0  0  0  0  0  0  0  0  0  0
  1  2  1  0
  2  3  2  0
  2  4  2  0
  2  5  1  0
  5  6  2  0
  6  7  1  0
  7  8  2  0
  8  9  1  0
  8 38  1  0
  9 10  1  0
 10 11  1  0
 10 25  2  0
 11 12  1  0
 12 13  1  0
 13 14  2  0
 13 15  1  0
 15 16  1  0
 16 17  2  0
 17 18  1  0
 18 19  1  0
 18 20  2  0
 20 21  1  0
 20 22  1  0
 22 23  2  0
 23 24  1  0
 23 16  1  0
 25 26  1  0
 26 27  2  0
 27 28  1  0
 28 29  2  0
 29 30  1  0
 30 31  2  0
 31 32  1  0
 32 33  2  0
 33 34  1  0
 33 28  1  0
 34 35  2  0
 35 36  1  0
 35 26  1  0
 36 37  2  0
 36  9  1  0
 38 39  2  0
 39  5  1  0
M  END
$$$$
CHEMBL4164936_plants_02
     RDKit          3D

 39 43  0  0  0  0  0  0  0  0999 V2000
  -20.1919   12.8729  -24.6513 N   0  0  0  0  0  0  0  0  0  0  0  0
  -19.1289   13.8602  -23.7129 S   0  0  0  0  0  0  0  0  0  0  0  0
  -19.8919   15.0342  -23.1667 O   0  0  0  0  0  0  0  0  0  0  0  0
  -18.5838   13.0617  -22.5622 O   0  0  0  0  0  0  0  0  0  0  0  0
  -17.8033   14.4235  -24.7253 C   0  0  0  0  0  0  0  0  0  0  0  0
  -17.4557   15.7806  -24.7331 C   0  0  0  0  0  0  0  0  0  0  0  0
  -16.3948   16.2304  -25.5236 C   0  0  0  0  0  0  0  0  0  0  0  0
  -15.6569   15.3251  -26.3029 C   0  0  0  0  0  0  0  0  0  0  0  0
  -14.5680   15.7897  -27.1283 N   0  0  0  0  0  0  0  0  0  0  0  0
  -14.5766   17.0623  -27.6485 C   0  0  0  0  0  0  0  0  0  0  0  0
  -15.9732   18.1815  -27.4136 S   0  0  0  0  0  0  0  0  0  0  0  0
  -15.0544   19.4277  -26.4366 C   0  0  0  0  0  0  0  0  0  0  0  0
  -14.6108   18.9165  -25.0989 C   0  0  0  0  0  0  0  0  0  0  0  0
  -13.3943   18.9694  -24.7730 O   0  0  0  0  0  0  0  0  0  0  0  0
  -15.5908   18.4749  -24.1502 N   0  0  0  0  0  0  0  0  0  0  0  0
  -15.2200   17.9245  -22.8820 C   0  0  0  0  0  0  0  0  0  0  0  0
  -15.7375   16.6827  -22.4931 C   0  0  0  0  0  0  0  0  0  0  0  0
  -15.3992   16.1302  -21.2526 C   0  0  0  0  0  0  0  0  0  0  0  0
  -16.0874   14.5779  -20.7955 Cl  0  0  0  0  0  0  0  0  0  0  0  0
  -14.5238   16.8196  -20.3969 C   0  0  0  0  0  0  0  0  0  0  0  0
  -14.0731   16.1607  -18.8302 Cl  0  0  0  0  0  0  0  0  0  0  0  0
  -13.9871   18.0491  -20.7949 C   0  0  0  0  0  0  0  0  0  0  0  0
  -14.3256   18.6017  -22.0348 C   0  0  0  0  0  0  0  0  0  0  0  0
  -13.5622   20.1029  -22.5360 Cl  0  0  0  0  0  0  0  0  0  0  0  0
  -13.5126   17.5162  -28.3585 N   0  0  0  0  0  0  0  0  0  0  0  0
  -12.4353   16.7343  -28.6056 C   0  0  0  0  0  0  0  0  0  0  0  0
  -11.3700   17.2363  -29.3599 C   0  0  0  0  0  0  0  0  0  0  0  0
  -10.2549   16.4304  -29.6294 C   0  0  0  0  0  0  0  0  0  0  0  0
   -9.1826   16.9246  -30.3888 C   0  0  0  0  0  0  0  0  0  0  0  0
   -8.0760   16.1125  -30.6523 C   0  0  0  0  0  0  0  0  0  0  0  0
   -8.0306   14.8048  -30.1618 C   0  0  0  0  0  0  0  0  0  0  0  0
   -9.0915   14.3002  -29.4044 C   0  0  0  0  0  0  0  0  0  0  0  0
  -10.2094   15.1049  -29.1324 C   0  0  0  0  0  0  0  0  0  0  0  0
  -11.2800   14.6076  -28.3737 C   0  0  0  0  0  0  0  0  0  0  0  0
  -12.3981   15.4197  -28.1082 C   0  0  0  0  0  0  0  0  0  0  0  0
  -13.4915   14.9663  -27.3493 C   0  0  0  0  0  0  0  0  0  0  0  0
  -13.4738   13.8005  -26.8611 O   0  0  0  0  0  0  0  0  0  0  0  0
  -16.0161   13.9678  -26.3022 C   0  0  0  0  0  0  0  0  0  0  0  0
  -17.0774   13.5184  -25.5116 C   0  0  0  0  0  0  0  0  0  0  0  0
  1  2  1  0
  2  3  2  0
  2  4  2  0
  2  5  1  0
  5  6  2  0
  6  7  1  0
  7  8  2  0
  8  9  1  0
  8 38  1  0
  9 10  1  0
 10 11  1  0
 10 25  2  0
 11 12  1  0
 12 13  1  0
 13 14  2  0
 13 15  1  0
 15 16  1  0
 16 17  2  0
 17 18  1  0
 18 19  1  0
 18 20  2  0
 20 21  1  0
 20 22  1  0
 22 23  2  0
 23 24  1  0
 23 16  1  0
 25 26  1  0
 26 27  2  0
 27 28  1  0
 28 29  2  0
 29 30  1  0
 30 31  2  0
 31 32  1  0
 32 33  2  0
 33 34  1  0
 33 28  1  0
 34 35  2  0
 35 36  1  0
 35 26  1  0
 36 37  2  0
 36  9  1  0
 38 39  2  0
 39  5  1  0
M  END
$$$$
CHEMBL4164936_plants_03
     RDKit          3D

 39 43  0  0  0  0  0  0  0  0999 V2000
   -8.7209   15.2124  -31.6364 N   0  0  0  0  0  0  0  0  0  0  0  0
   -9.3609   16.5398  -30.7343 S   0  0  0  0  0  0  0  0  0  0  0  0
   -8.2390   17.2517  -30.0320 O   0  0  0  0  0  0  0  0  0  0  0  0
  -10.0350   17.5055  -31.6682 O   0  0  0  0  0  0  0  0  0  0  0  0
  -10.5248   15.9429  -29.5561 C   0  0  0  0  0  0  0  0  0  0  0  0
  -10.3810   14.6570  -29.0189 C   0  0  0  0  0  0  0  0  0  0  0  0
  -11.2937   14.1840  -28.0724 C   0  0  0  0  0  0  0  0  0  0  0  0
  -12.3519   14.9983  -27.6382 C   0  0  0  0  0  0  0  0  0  0  0  0
  -13.3017   14.5072  -26.6688 N   0  0  0  0  0  0  0  0  0  0  0  0
  -12.8723   13.9031  -25.5109 C   0  0  0  0  0  0  0  0  0  0  0  0
  -11.1229   13.6058  -25.1799 S   0  0  0  0  0  0  0  0  0  0  0  0
  -10.9919   14.7841  -23.7847 C   0  0  0  0  0  0  0  0  0  0  0  0
  -11.6838   16.0876  -24.0483 C   0  0  0  0  0  0  0  0  0  0  0  0
  -11.0184   17.1566  -24.1073 O   0  0  0  0  0  0  0  0  0  0  0  0
  -13.0862   16.0962  -24.3463 N   0  0  0  0  0  0  0  0  0  0  0  0
  -13.8077   17.3156  -24.5490 C   0  0  0  0  0  0  0  0  0  0  0  0
  -14.9919   17.5409  -23.8362 C   0  0  0  0  0  0  0  0  0  0  0  0
  -15.7212   18.7200  -24.0267 C   0  0  0  0  0  0  0  0  0  0  0  0
  -17.2132   18.9536  -23.1259 Cl  0  0  0  0  0  0  0  0  0  0  0  0
  -15.2554   19.6906  -24.9294 C   0  0  0  0  0  0  0  0  0  0  0  0
  -16.1413   21.1856  -25.1982 Cl  0  0  0  0  0  0  0  0  0  0  0  0
  -14.0597   19.4771  -25.6242 C   0  0  0  0  0  0  0  0  0  0  0  0
  -13.3308   18.2981  -25.4341 C   0  0  0  0  0  0  0  0  0  0  0  0
  -11.7901   18.1065  -26.2570 Cl  0  0  0  0  0  0  0  0  0  0  0  0
  -13.7707   13.5149  -24.5705 N   0  0  0  0  0  0  0  0  0  0  0  0
  -15.1031   13.6748  -24.7493 C   0  0  0  0  0  0  0  0  0  0  0  0
  -15.9942   13.2408  -23.7626 C   0  0  0  0  0  0  0  0  0  0  0  0
  -17.3761   13.3930  -23.9438 C   0  0  0  0  0  0  0  0  0  0  0  0
  -18.2781   12.9570  -22.9604 C   0  0  0  0  0  0  0  0  0  0  0  0
  -19.6540   13.1128  -23.1514 C   0  0  0  0  0  0  0  0  0  0  0  0
  -20.1392   13.7029  -24.3213 C   0  0  0  0  0  0  0  0  0  0  0  0
  -19.2521   14.1414  -25.3085 C   0  0  0  0  0  0  0  0  0  0  0  0
  -17.8676   13.9908  -25.1299 C   0  0  0  0  0  0  0  0  0  0  0  0
  -16.9686   14.4270  -26.1152 C   0  0  0  0  0  0  0  0  0  0  0  0
  -15.5826   14.2696  -25.9297 C   0  0  0  0  0  0  0  0  0  0  0  0
  -14.6444   14.6951  -26.8866 C   0  0  0  0  0  0  0  0  0  0  0  0
  -15.0424   15.2627  -27.9436 O   0  0  0  0  0  0  0  0  0  0  0  0
  -12.5001   16.2817  -28.1880 C   0  0  0  0  0  0  0  0  0  0  0  0
  -11.5871   16.7542  -29.1349 C   0  0  0  0  0  0  0  0  0  0  0  0
  1  2  1  0
  2  3  2  0
  2  4  2  0
  2  5  1  0
  5  6  2  0
  6  7  1  0
  7  8  2  0
  8  9  1  0
  8 38  1  0
  9 10  1  0
 10 11  1  0
 10 25  2  0
 11 12  1  0
 12 13  1  0
 13 14  2  0
 13 15  1  0
 15 16  1  0
 16 17  2  0
 17 18  1  0
 18 19  1  0
 18 20  2  0
 20 21  1  0
 20 22  1  0
 22 23  2  0
 23 24  1  0
 23 16  1  0
 25 26  1  0
 26 27  2  0
 27 28  1  0
 28 29  2  0
 29 30  1  0
 30 31  2  0
 31 32  1  0
 32 33  2  0
 33 34  1  0
 33 28  1  0
 34 35  2  0
 35 36  1  0
 35 26  1  0
 36 37  2  0
 36  9  1  0
 38 39  2  0
 39  5  1  0
M  END
$$$$
CHEMBL4164936_plants_04
     RDKit          3D

 39 43  0  0  0  0  0  0  0  0999 V2000
   -8.8712   15.1491  -31.5706 N   0  0  0  0  0  0  0  0  0  0  0  0
   -9.7534   16.5425  -31.0551 S   0  0  0  0  0  0  0  0  0  0  0  0
   -8.7887   17.6323  -30.6805 O   0  0  0  0  0  0  0  0  0  0  0  0
  -10.6223   17.0331  -32.1790 O   0  0  0  0  0  0  0  0  0  0  0  0
  -10.7552   16.1242  -29.6692 C   0  0  0  0  0  0  0  0  0  0  0  0
  -11.1417   17.1168  -28.7592 C   0  0  0  0  0  0  0  0  0  0  0  0
  -11.9491   16.7927  -27.6657 C   0  0  0  0  0  0  0  0  0  0  0  0
  -12.3946   15.4744  -27.4786 C   0  0  0  0  0  0  0  0  0  0  0  0
  -13.2195   15.1359  -26.3437 N   0  0  0  0  0  0  0  0  0  0  0  0
  -12.9028   15.5927  -25.0862 C   0  0  0  0  0  0  0  0  0  0  0  0
  -11.4067   16.5504  -24.7659 S   0  0  0  0  0  0  0  0  0  0  0  0
  -12.2451   17.9244  -23.8934 C   0  0  0  0  0  0  0  0  0  0  0  0
  -13.6008   18.2361  -24.4522 C   0  0  0  0  0  0  0  0  0  0  0  0
  -13.8110   18.1430  -25.6917 O   0  0  0  0  0  0  0  0  0  0  0  0
  -14.6838   18.5280  -23.5592 N   0  0  0  0  0  0  0  0  0  0  0  0
  -15.9829   18.8883  -24.0400 C   0  0  0  0  0  0  0  0  0  0  0  0
  -16.1169   19.9778  -24.9095 C   0  0  0  0  0  0  0  0  0  0  0  0
  -17.3782   20.3567  -25.3829 C   0  0  0  0  0  0  0  0  0  0  0  0
  -17.5035   21.7432  -26.4572 Cl  0  0  0  0  0  0  0  0  0  0  0  0
  -18.5167   19.6311  -24.9938 C   0  0  0  0  0  0  0  0  0  0  0  0
  -20.1195   20.0738  -25.5655 Cl  0  0  0  0  0  0  0  0  0  0  0  0
  -18.3810   18.5276  -24.1442 C   0  0  0  0  0  0  0  0  0  0  0  0
  -17.1201   18.1490  -23.6706 C   0  0  0  0  0  0  0  0  0  0  0  0
  -16.9804   16.7055  -22.6783 Cl  0  0  0  0  0  0  0  0  0  0  0  0
  -13.7266   15.3340  -24.0390 N   0  0  0  0  0  0  0  0  0  0  0  0
  -14.8548   14.6001  -24.1847 C   0  0  0  0  0  0  0  0  0  0  0  0
  -15.6637   14.3402  -23.0738 C   0  0  0  0  0  0  0  0  0  0  0  0
  -16.8285   13.5724  -23.2134 C   0  0  0  0  0  0  0  0  0  0  0  0
  -17.6445   13.3035  -22.1032 C   0  0  0  0  0  0  0  0  0  0  0  0
  -18.8033   12.5363  -22.2532 C   0  0  0  0  0  0  0  0  0  0  0  0
  -19.1559   12.0330  -23.5081 C   0  0  0  0  0  0  0  0  0  0  0  0
  -18.3523   12.2934  -24.6218 C   0  0  0  0  0  0  0  0  0  0  0  0
  -17.1855   13.0622  -24.4854 C   0  0  0  0  0  0  0  0  0  0  0  0
  -16.3715   13.3286  -25.5971 C   0  0  0  0  0  0  0  0  0  0  0  0
  -15.2020   14.0976  -25.4512 C   0  0  0  0  0  0  0  0  0  0  0  0
  -14.3587   14.3939  -26.5365 C   0  0  0  0  0  0  0  0  0  0  0  0
  -14.6605   13.9840  -27.6935 O   0  0  0  0  0  0  0  0  0  0  0  0
  -11.9951   14.4799  -28.3856 C   0  0  0  0  0  0  0  0  0  0  0  0
  -11.1873   14.8046  -29.4790 C   0  0  0  0  0  0  0  0  0  0  0  0
  1  2  1  0
  2  3  2  0
  2  4  2  0
  2  5  1  0
  5  6  2  0
  6  7  1  0
  7  8  2  0
  8  9  1  0
  8 38  1  0
  9 10  1  0
 10 11  1  0
 10 25  2  0
 11 12  1  0
 12 13  1  0
 13 14  2  0
 13 15  1  0
 15 16  1  0
 16 17  2  0
 17 18  1  0
 18 19  1  0
 18 20  2  0
 20 21  1  0
 20 22  1  0
 22 23  2  0
 23 24  1  0
 23 16  1  0
 25 26  1  0
 26 27  2  0
 27 28  1  0
 28 29  2  0
 29 30  1  0
 30 31  2  0
 31 32  1  0
 32 33  2  0
 33 34  1  0
 33 28  1  0
 34 35  2  0
 35 36  1  0
 35 26  1  0
 36 37  2  0
 36  9  1  0
 38 39  2  0
 39  5  1  0
M  END
$$$$
CHEMBL4164936_plants_05
     RDKit          3D

 39 43  0  0  0  0  0  0  0  0999 V2000
  -17.8623   11.4538  -23.2394 N   0  0  0  0  0  0  0  0  0  0  0  0
  -17.5964   10.7696  -24.8035 S   0  0  0  0  0  0  0  0  0  0  0  0
  -17.0328    9.3847  -24.6522 O   0  0  0  0  0  0  0  0  0  0  0  0
  -18.9017   10.6808  -25.5433 O   0  0  0  0  0  0  0  0  0  0  0  0
  -16.4715   11.7812  -25.7038 C   0  0  0  0  0  0  0  0  0  0  0  0
  -16.3992   13.1551  -25.4394 C   0  0  0  0  0  0  0  0  0  0  0  0
  -15.4975   13.9599  -26.1408 C   0  0  0  0  0  0  0  0  0  0  0  0
  -14.6443   13.3971  -27.1034 C   0  0  0  0  0  0  0  0  0  0  0  0
  -13.7202   14.2287  -27.8365 N   0  0  0  0  0  0  0  0  0  0  0  0
  -14.1066   15.4629  -28.3029 C   0  0  0  0  0  0  0  0  0  0  0  0
  -15.7956   16.0707  -28.1129 S   0  0  0  0  0  0  0  0  0  0  0  0
  -15.3376   17.8247  -27.8570 C   0  0  0  0  0  0  0  0  0  0  0  0
  -14.6721   18.0725  -26.5368 C   0  0  0  0  0  0  0  0  0  0  0  0
  -13.5773   17.5099  -26.2645 O   0  0  0  0  0  0  0  0  0  0  0  0
  -15.2273   19.0394  -25.6354 N   0  0  0  0  0  0  0  0  0  0  0  0
  -14.6660   19.2737  -24.3397 C   0  0  0  0  0  0  0  0  0  0  0  0
  -15.0301   18.4440  -23.2719 C   0  0  0  0  0  0  0  0  0  0  0  0
  -14.5042   18.6613  -21.9934 C   0  0  0  0  0  0  0  0  0  0  0  0
  -15.0036   17.6081  -20.6767 Cl  0  0  0  0  0  0  0  0  0  0  0  0
  -13.5942   19.7106  -21.7821 C   0  0  0  0  0  0  0  0  0  0  0  0
  -12.9100   20.0178  -20.1917 Cl  0  0  0  0  0  0  0  0  0  0  0  0
  -13.2111   20.5251  -22.8535 C   0  0  0  0  0  0  0  0  0  0  0  0
  -13.7373   20.3083  -24.1316 C   0  0  0  0  0  0  0  0  0  0  0  0
  -13.1644   21.2950  -25.4679 Cl  0  0  0  0  0  0  0  0  0  0  0  0
  -13.2083   16.2697  -28.9231 N   0  0  0  0  0  0  0  0  0  0  0  0
  -11.9281   15.8819  -29.1320 C   0  0  0  0  0  0  0  0  0  0  0  0
  -11.0417   16.7373  -29.7942 C   0  0  0  0  0  0  0  0  0  0  0  0
   -9.7169   16.3400  -30.0240 C   0  0  0  0  0  0  0  0  0  0  0  0
   -8.8212   17.1905  -30.6910 C   0  0  0  0  0  0  0  0  0  0  0  0
   -7.5027   16.7843  -30.9157 C   0  0  0  0  0  0  0  0  0  0  0  0
   -7.0690   15.5302  -30.4780 C   0  0  0  0  0  0  0  0  0  0  0  0
   -7.9505   14.6736  -29.8125 C   0  0  0  0  0  0  0  0  0  0  0  0
   -9.2777   15.0687  -29.5804 C   0  0  0  0  0  0  0  0  0  0  0  0
  -10.1708   14.2158  -28.9140 C   0  0  0  0  0  0  0  0  0  0  0  0
  -11.5002   14.6182  -28.6881 C   0  0  0  0  0  0  0  0  0  0  0  0
  -12.4288   13.7999  -28.0212 C   0  0  0  0  0  0  0  0  0  0  0  0
  -12.0661   12.6716  -27.5816 O   0  0  0  0  0  0  0  0  0  0  0  0
  -14.7283   12.0220  -27.3746 C   0  0  0  0  0  0  0  0  0  0  0  0
  -15.6305   11.2176  -26.6730 C   0  0  0  0  0  0  0  0  0  0  0  0
  1  2  1  0
  2  3  2  0
  2  4  2  0
  2  5  1  0
  5  6  2  0
  6  7  1  0
  7  8  2  0
  8  9  1  0
  8 38  1  0
  9 10  1  0
 10 11  1  0
 10 25  2  0
 11 12  1  0
 12 13  1  0
 13 14  2  0
 13 15  1  0
 15 16  1  0
 16 17  2  0
 17 18  1  0
 18 19  1  0
 18 20  2  0
 20 21  1  0
 20 22  1  0
 22 23  2  0
 23 24  1  0
 23 16  1  0
 25 26  1  0
 26 27  2  0
 27 28  1  0
 28 29  2  0
 29 30  1  0
 30 31  2  0
 31 32  1  0
 32 33  2  0
 33 34  1  0
 33 28  1  0
 34 35  2  0
 35 36  1  0
 35 26  1  0
 36 37  2  0
 36  9  1  0
 38 39  2  0
 39  5  1  0
M  END
$$$$
CHEMBL4164936_plants_06
     RDKit          3D

 39 43  0  0  0  0  0  0  0  0999 V2000
  -18.5998   13.6930  -22.0704 N   0  0  0  0  0  0  0  0  0  0  0  0
  -18.5264   12.6473  -23.4439 S   0  0  0  0  0  0  0  0  0  0  0  0
  -18.0895   11.2780  -23.0046 O   0  0  0  0  0  0  0  0  0  0  0  0
  -19.8887   12.5410  -24.0699 O   0  0  0  0  0  0  0  0  0  0  0  0
  -17.3836   13.2956  -24.6156 C   0  0  0  0  0  0  0  0  0  0  0  0
  -16.5957   12.4259  -25.3809 C   0  0  0  0  0  0  0  0  0  0  0  0
  -15.6978   12.9350  -26.3228 C   0  0  0  0  0  0  0  0  0  0  0  0
  -15.5894   14.3204  -26.5235 C   0  0  0  0  0  0  0  0  0  0  0  0
  -14.6546   14.8482  -27.4881 N   0  0  0  0  0  0  0  0  0  0  0  0
  -15.0684   15.7391  -28.4499 C   0  0  0  0  0  0  0  0  0  0  0  0
  -16.7986   16.2238  -28.6229 S   0  0  0  0  0  0  0  0  0  0  0  0
  -16.5047   18.0256  -28.4856 C   0  0  0  0  0  0  0  0  0  0  0  0
  -15.9051   18.4256  -27.1711 C   0  0  0  0  0  0  0  0  0  0  0  0
  -15.9359   19.6307  -26.8022 O   0  0  0  0  0  0  0  0  0  0  0  0
  -15.4012   17.4156  -26.2871 N   0  0  0  0  0  0  0  0  0  0  0  0
  -14.7672   17.7454  -25.0469 C   0  0  0  0  0  0  0  0  0  0  0  0
  -13.3689   17.7701  -24.9743 C   0  0  0  0  0  0  0  0  0  0  0  0
  -12.7263   18.0775  -23.7697 C   0  0  0  0  0  0  0  0  0  0  0  0
  -10.9686   18.0777  -23.7177 Cl  0  0  0  0  0  0  0  0  0  0  0  0
  -13.4891   18.3766  -22.6283 C   0  0  0  0  0  0  0  0  0  0  0  0
  -12.7215   18.7680  -21.0955 Cl  0  0  0  0  0  0  0  0  0  0  0  0
  -14.8862   18.3758  -22.7059 C   0  0  0  0  0  0  0  0  0  0  0  0
  -15.5286   18.0681  -23.9101 C   0  0  0  0  0  0  0  0  0  0  0  0
  -17.2813   18.1647  -23.9902 Cl  0  0  0  0  0  0  0  0  0  0  0  0
  -14.1674   16.2892  -29.3030 N   0  0  0  0  0  0  0  0  0  0  0  0
  -12.8546   15.9609  -29.2613 C   0  0  0  0  0  0  0  0  0  0  0  0
  -11.9645   16.5365  -30.1737 C   0  0  0  0  0  0  0  0  0  0  0  0
  -10.6052   16.1947  -30.1445 C   0  0  0  0  0  0  0  0  0  0  0  0
   -9.7051   16.7647  -31.0588 C   0  0  0  0  0  0  0  0  0  0  0  0
   -8.3520   16.4165  -31.0216 C   0  0  0  0  0  0  0  0  0  0  0  0
   -7.8875   15.4997  -30.0749 C   0  0  0  0  0  0  0  0  0  0  0  0
   -8.7729   14.9247  -29.1587 C   0  0  0  0  0  0  0  0  0  0  0  0
  -10.1348   15.2652  -29.1850 C   0  0  0  0  0  0  0  0  0  0  0  0
  -11.0320   14.6930  -28.2702 C   0  0  0  0  0  0  0  0  0  0  0  0
  -12.3960   15.0375  -28.3053 C   0  0  0  0  0  0  0  0  0  0  0  0
  -13.3305   14.4937  -27.4065 C   0  0  0  0  0  0  0  0  0  0  0  0
  -12.9439   13.6856  -26.5148 O   0  0  0  0  0  0  0  0  0  0  0  0
  -16.3715   15.1894  -25.7460 C   0  0  0  0  0  0  0  0  0  0  0  0
  -17.2693   14.6797  -24.8038 C   0  0  0  0  0  0  0  0  0  0  0  0
  1  2  1  0
  2  3  2  0
  2  4  2  0
  2  5  1  0
  5  6  2  0
  6  7  1  0
  7  8  2  0
  8  9  1  0
  8 38  1  0
  9 10  1  0
 10 11  1  0
 10 25  2  0
 11 12  1  0
 12 13  1  0
 13 14  2  0
 13 15  1  0
 15 16  1  0
 16 17  2  0
 17 18  1  0
 18 19  1  0
 18 20  2  0
 20 21  1  0
 20 22  1  0
 22 23  2  0
 23 24  1  0
 23 16  1  0
 25 26  1  0
 26 27  2  0
 27 28  1  0
 28 29  2  0
 29 30  1  0
 30 31  2  0
 31 32  1  0
 32 33  2  0
 33 34  1  0
 33 28  1  0
 34 35  2  0
 35 36  1  0
 35 26  1  0
 36 37  2  0
 36  9  1  0
 38 39  2  0
 39  5  1  0
M  END
$$$$
CHEMBL4164936_plants_07
     RDKit          3D

 39 43  0  0  0  0  0  0  0  0999 V2000
  -16.8488   12.2155  -21.0863 N   0  0  0  0  0  0  0  0  0  0  0  0
  -17.5669   13.3814  -22.1401 S   0  0  0  0  0  0  0  0  0  0  0  0
  -18.6937   12.7391  -22.8994 O   0  0  0  0  0  0  0  0  0  0  0  0
  -18.1191   14.5205  -21.3298 O   0  0  0  0  0  0  0  0  0  0  0  0
  -16.3528   13.9852  -23.2629 C   0  0  0  0  0  0  0  0  0  0  0  0
  -16.7484   14.6277  -24.4433 C   0  0  0  0  0  0  0  0  0  0  0  0
  -15.7887   15.1219  -25.3307 C   0  0  0  0  0  0  0  0  0  0  0  0
  -14.4210   14.9952  -25.0397 C   0  0  0  0  0  0  0  0  0  0  0  0
  -13.4285   15.4953  -25.9603 N   0  0  0  0  0  0  0  0  0  0  0  0
  -12.2353   15.9987  -25.4989 C   0  0  0  0  0  0  0  0  0  0  0  0
  -11.8800   16.1508  -23.7357 S   0  0  0  0  0  0  0  0  0  0  0  0
  -11.8294   17.9807  -23.7104 C   0  0  0  0  0  0  0  0  0  0  0  0
  -13.1913   18.6072  -23.7123 C   0  0  0  0  0  0  0  0  0  0  0  0
  -13.3481   19.7819  -23.2825 O   0  0  0  0  0  0  0  0  0  0  0  0
  -14.2907   17.9078  -24.3104 N   0  0  0  0  0  0  0  0  0  0  0  0
  -15.6218   18.4335  -24.2890 C   0  0  0  0  0  0  0  0  0  0  0  0
  -16.6689   17.6360  -23.8108 C   0  0  0  0  0  0  0  0  0  0  0  0
  -17.9805   18.1237  -23.7918 C   0  0  0  0  0  0  0  0  0  0  0  0
  -19.2682   17.0816  -23.2018 Cl  0  0  0  0  0  0  0  0  0  0  0  0
  -18.2470   19.4273  -24.2430 C   0  0  0  0  0  0  0  0  0  0  0  0
  -19.8803   20.0785  -24.2358 Cl  0  0  0  0  0  0  0  0  0  0  0  0
  -17.1979   20.2336  -24.6983 C   0  0  0  0  0  0  0  0  0  0  0  0
  -15.8867   19.7458  -24.7178 C   0  0  0  0  0  0  0  0  0  0  0  0
  -14.5856   20.8183  -25.2124 Cl  0  0  0  0  0  0  0  0  0  0  0  0
  -11.2774   16.3945  -26.3753 N   0  0  0  0  0  0  0  0  0  0  0  0
  -11.4709   16.3407  -27.7142 C   0  0  0  0  0  0  0  0  0  0  0  0
  -10.4642   16.7787  -28.5805 C   0  0  0  0  0  0  0  0  0  0  0  0
  -10.6598   16.7362  -29.9681 C   0  0  0  0  0  0  0  0  0  0  0  0
   -9.6562   17.1773  -30.8452 C   0  0  0  0  0  0  0  0  0  0  0  0
   -9.8618   17.1313  -32.2270 C   0  0  0  0  0  0  0  0  0  0  0  0
  -11.0664   16.6465  -32.7430 C   0  0  0  0  0  0  0  0  0  0  0  0
  -12.0739   16.2043  -31.8810 C   0  0  0  0  0  0  0  0  0  0  0  0
  -11.8810   16.2451  -30.4908 C   0  0  0  0  0  0  0  0  0  0  0  0
  -12.8865   15.8042  -29.6168 C   0  0  0  0  0  0  0  0  0  0  0  0
  -12.6862   15.8514  -28.2247 C   0  0  0  0  0  0  0  0  0  0  0  0
  -13.6625   15.4166  -27.3112 C   0  0  0  0  0  0  0  0  0  0  0  0
  -14.7527   14.9414  -27.7395 O   0  0  0  0  0  0  0  0  0  0  0  0
  -14.0282   14.3397  -23.8618 C   0  0  0  0  0  0  0  0  0  0  0  0
  -14.9884   13.8453  -22.9747 C   0  0  0  0  0  0  0  0  0  0  0  0
  1  2  1  0
  2  3  2  0
  2  4  2  0
  2  5  1  0
  5  6  2  0
  6  7  1  0
  7  8  2  0
  8  9  1  0
  8 38  1  0
  9 10  1  0
 10 11  1  0
 10 25  2  0
 11 12  1  0
 12 13  1  0
 13 14  2  0
 13 15  1  0
 15 16  1  0
 16 17  2  0
 17 18  1  0
 18 19  1  0
 18 20  2  0
 20 21  1  0
 20 22  1  0
 22 23  2  0
 23 24  1  0
 23 16  1  0
 25 26  1  0
 26 27  2  0
 27 28  1  0
 28 29  2  0
 29 30  1  0
 30 31  2  0
 31 32  1  0
 32 33  2  0
 33 34  1  0
 33 28  1  0
 34 35  2  0
 35 36  1  0
 35 26  1  0
 36 37  2  0
 36  9  1  0
 38 39  2  0
 39  5  1  0
M  END
$$$$
CHEMBL4164936_plants_08
     RDKit          3D

 39 43  0  0  0  0  0  0  0  0999 V2000
  -18.0791   13.9137  -21.4809 N   0  0  0  0  0  0  0  0  0  0  0  0
  -18.7470   13.8930  -23.0742 S   0  0  0  0  0  0  0  0  0  0  0  0
  -19.2483   12.5110  -23.3863 O   0  0  0  0  0  0  0  0  0  0  0  0
  -19.9011   14.8530  -23.1494 O   0  0  0  0  0  0  0  0  0  0  0  0
  -17.5097   14.3601  -24.2362 C   0  0  0  0  0  0  0  0  0  0  0  0
  -17.5197   13.8155  -25.5270 C   0  0  0  0  0  0  0  0  0  0  0  0
  -16.5486   14.1942  -26.4577 C   0  0  0  0  0  0  0  0  0  0  0  0
  -15.5654   15.1359  -26.1142 C   0  0  0  0  0  0  0  0  0  0  0  0
  -14.5552   15.5197  -27.0707 N   0  0  0  0  0  0  0  0  0  0  0  0
  -14.8028   16.5096  -27.9921 C   0  0  0  0  0  0  0  0  0  0  0  0
  -16.4141   17.3126  -28.1227 S   0  0  0  0  0  0  0  0  0  0  0  0
  -15.9865   18.7631  -27.0907 C   0  0  0  0  0  0  0  0  0  0  0  0
  -14.5798   18.7237  -26.5742 C   0  0  0  0  0  0  0  0  0  0  0  0
  -13.6638   19.3371  -27.1856 O   0  0  0  0  0  0  0  0  0  0  0  0
  -14.3040   18.0825  -25.3218 N   0  0  0  0  0  0  0  0  0  0  0  0
  -12.9722   17.9657  -24.8103 C   0  0  0  0  0  0  0  0  0  0  0  0
  -12.4972   16.7112  -24.4083 C   0  0  0  0  0  0  0  0  0  0  0  0
  -11.2031   16.5743  -23.8934 C   0  0  0  0  0  0  0  0  0  0  0  0
  -10.6538   14.9841  -23.3818 Cl  0  0  0  0  0  0  0  0  0  0  0  0
  -10.3698   17.7008  -23.7914 C   0  0  0  0  0  0  0  0  0  0  0  0
   -8.7375   17.5723  -23.1502 Cl  0  0  0  0  0  0  0  0  0  0  0  0
  -10.8350   18.9505  -24.2153 C   0  0  0  0  0  0  0  0  0  0  0  0
  -12.1289   19.0875  -24.7297 C   0  0  0  0  0  0  0  0  0  0  0  0
  -12.6445   20.6550  -25.3337 Cl  0  0  0  0  0  0  0  0  0  0  0  0
  -13.8209   16.9170  -28.8360 N   0  0  0  0  0  0  0  0  0  0  0  0
  -12.5915   16.3501  -28.8249 C   0  0  0  0  0  0  0  0  0  0  0  0
  -11.6160   16.7871  -29.7269 C   0  0  0  0  0  0  0  0  0  0  0  0
  -10.3435   16.1987  -29.7294 C   0  0  0  0  0  0  0  0  0  0  0  0
   -9.3592   16.6284  -30.6336 C   0  0  0  0  0  0  0  0  0  0  0  0
   -8.0939   16.0345  -30.6282 C   0  0  0  0  0  0  0  0  0  0  0  0
   -7.8015   15.0105  -29.7236 C   0  0  0  0  0  0  0  0  0  0  0  0
   -8.7723   14.5731  -28.8180 C   0  0  0  0  0  0  0  0  0  0  0  0
  -10.0475   15.1606  -28.8126 C   0  0  0  0  0  0  0  0  0  0  0  0
  -11.0293   14.7282  -27.9080 C   0  0  0  0  0  0  0  0  0  0  0  0
  -12.3060   15.3203  -27.9112 C   0  0  0  0  0  0  0  0  0  0  0  0
  -13.3193   14.9234  -27.0210 C   0  0  0  0  0  0  0  0  0  0  0  0
  -13.0835   14.0226  -26.1661 O   0  0  0  0  0  0  0  0  0  0  0  0
  -15.5511   15.6701  -24.8158 C   0  0  0  0  0  0  0  0  0  0  0  0
  -16.5224   15.2909  -23.8852 C   0  0  0  0  0  0  0  0  0  0  0  0
  1  2  1  0
  2  3  2  0
  2  4  2  0
  2  5  1  0
  5  6  2  0
  6  7  1  0
  7  8  2  0
  8  9  1  0
  8 38  1  0
  9 10  1  0
 10 11  1  0
 10 25  2  0
 11 12  1  0
 12 13  1  0
 13 14  2  0
 13 15  1  0
 15 16  1  0
 16 17  2  0
 17 18  1  0
 18 19  1  0
 18 20  2  0
 20 21  1  0
 20 22  1  0
 22 23  2  0
 23 24  1  0
 23 16  1  0
 25 26  1  0
 26 27  2  0
 27 28  1  0
 28 29  2  0
 29 30  1  0
 30 31  2  0
 31 32  1  0
 32 33  2  0
 33 34  1  0
 33 28  1  0
 34 35  2  0
 35 36  1  0
 35 26  1  0
 36 37  2  0
 36  9  1  0
 38 39  2  0
 39  5  1  0
M  END
$$$$
CHEMBL4164936_plants_09
     RDKit          3D

 39 43  0  0  0  0  0  0  0  0999 V2000
   -7.5886   14.7499  -29.7572 N   0  0  0  0  0  0  0  0  0  0  0  0
   -8.7532   15.9507  -30.1898 S   0  0  0  0  0  0  0  0  0  0  0  0
   -8.2049   17.3135  -29.8726 O   0  0  0  0  0  0  0  0  0  0  0  0
   -9.0318   15.8743  -31.6648 O   0  0  0  0  0  0  0  0  0  0  0  0
  -10.2413   15.6772  -29.2898 C   0  0  0  0  0  0  0  0  0  0  0  0
  -10.5490   16.4808  -28.1842 C   0  0  0  0  0  0  0  0  0  0  0  0
  -11.7360   16.2774  -27.4753 C   0  0  0  0  0  0  0  0  0  0  0  0
  -12.6386   15.2788  -27.8744 C   0  0  0  0  0  0  0  0  0  0  0  0
  -13.8597   15.0603  -27.1368 N   0  0  0  0  0  0  0  0  0  0  0  0
  -15.0485   15.5930  -27.5761 C   0  0  0  0  0  0  0  0  0  0  0  0
  -15.1386   16.6614  -29.0283 S   0  0  0  0  0  0  0  0  0  0  0  0
  -14.3427   18.1122  -28.2450 C   0  0  0  0  0  0  0  0  0  0  0  0
  -14.8708   18.4037  -26.8726 C   0  0  0  0  0  0  0  0  0  0  0  0
  -15.6080   19.4076  -26.6783 O   0  0  0  0  0  0  0  0  0  0  0  0
  -14.6283   17.4731  -25.8092 N   0  0  0  0  0  0  0  0  0  0  0  0
  -15.0595   17.7291  -24.4686 C   0  0  0  0  0  0  0  0  0  0  0  0
  -15.8003   16.7560  -23.7865 C   0  0  0  0  0  0  0  0  0  0  0  0
  -16.2437   16.9885  -22.4796 C   0  0  0  0  0  0  0  0  0  0  0  0
  -17.1881   15.7475  -21.6671 Cl  0  0  0  0  0  0  0  0  0  0  0  0
  -15.9321   18.2012  -21.8424 C   0  0  0  0  0  0  0  0  0  0  0  0
  -16.4696   18.5333  -20.2014 Cl  0  0  0  0  0  0  0  0  0  0  0  0
  -15.1714   19.1644  -22.5143 C   0  0  0  0  0  0  0  0  0  0  0  0
  -14.7285   18.9322  -23.8210 C   0  0  0  0  0  0  0  0  0  0  0  0
  -13.7014   20.1275  -24.5980 Cl  0  0  0  0  0  0  0  0  0  0  0  0
  -16.2037   15.3175  -26.9189 N   0  0  0  0  0  0  0  0  0  0  0  0
  -16.2234   14.5480  -25.8051 C   0  0  0  0  0  0  0  0  0  0  0  0
  -17.4340   14.3073  -25.1476 C   0  0  0  0  0  0  0  0  0  0  0  0
  -17.4624   13.5201  -23.9877 C   0  0  0  0  0  0  0  0  0  0  0  0
  -18.6724   13.2761  -23.3190 C   0  0  0  0  0  0  0  0  0  0  0  0
  -18.6895   12.4905  -22.1631 C   0  0  0  0  0  0  0  0  0  0  0  0
  -17.5032   11.9439  -21.6666 C   0  0  0  0  0  0  0  0  0  0  0  0
  -16.2915   12.1790  -22.3227 C   0  0  0  0  0  0  0  0  0  0  0  0
  -16.2598   12.9665  -23.4847 C   0  0  0  0  0  0  0  0  0  0  0  0
  -15.0485   13.2091  -24.1503 C   0  0  0  0  0  0  0  0  0  0  0  0
  -15.0249   14.0020  -25.3126 C   0  0  0  0  0  0  0  0  0  0  0  0
  -13.8365   14.2684  -26.0152 C   0  0  0  0  0  0  0  0  0  0  0  0
  -12.7477   13.7654  -25.6162 O   0  0  0  0  0  0  0  0  0  0  0  0
  -12.3211   14.4672  -28.9753 C   0  0  0  0  0  0  0  0  0  0  0  0
  -11.1336   14.6708  -29.6838 C   0  0  0  0  0  0  0  0  0  0  0  0
  1  2  1  0
  2  3  2  0
  2  4  2  0
  2  5  1  0
  5  6  2  0
  6  7  1  0
  7  8  2  0
  8  9  1  0
  8 38  1  0
  9 10  1  0
 10 11  1  0
 10 25  2  0
 11 12  1  0
 12 13  1  0
 13 14  2  0
 13 15  1  0
 15 16  1  0
 16 17  2  0
 17 18  1  0
 18 19  1  0
 18 20  2  0
 20 21  1  0
 20 22  1  0
 22 23  2  0
 23 24  1  0
 23 16  1  0
 25 26  1  0
 26 27  2  0
 27 28  1  0
 28 29  2  0
 29 30  1  0
 30 31  2  0
 31 32  1  0
 32 33  2  0
 33 34  1  0
 33 28  1  0
 34 35  2  0
 35 36  1  0
 35 26  1  0
 36 37  2  0
 36  9  1  0
 38 39  2  0
 39  5  1  0
M  END
$$$$
CHEMBL4164936_plants_10
     RDKit          3D

 39 43  0  0  0  0  0  0  0  0999 V2000
   -8.7287   18.1813  -30.0267 N   0  0  0  0  0  0  0  0  0  0  0  0
   -9.5168   16.7683  -30.6330 S   0  0  0  0  0  0  0  0  0  0  0  0
   -9.9891   17.0249  -32.0364 O   0  0  0  0  0  0  0  0  0  0  0  0
   -8.5473   15.6199  -30.6529 O   0  0  0  0  0  0  0  0  0  0  0  0
  -10.8866   16.3710  -29.6010 C   0  0  0  0  0  0  0  0  0  0  0  0
  -12.0883   15.9304  -30.1708 C   0  0  0  0  0  0  0  0  0  0  0  0
  -13.1738   15.5996  -29.3553 C   0  0  0  0  0  0  0  0  0  0  0  0
  -13.0649   15.6886  -27.9583 C   0  0  0  0  0  0  0  0  0  0  0  0
  -14.1886   15.3579  -27.1152 N   0  0  0  0  0  0  0  0  0  0  0  0
  -15.4750   15.5999  -27.5353 C   0  0  0  0  0  0  0  0  0  0  0  0
  -15.8300   16.4207  -29.1033 S   0  0  0  0  0  0  0  0  0  0  0  0
  -15.4916   18.1188  -28.5084 C   0  0  0  0  0  0  0  0  0  0  0  0
  -14.7103   18.1496  -27.2294 C   0  0  0  0  0  0  0  0  0  0  0  0
  -13.4561   18.2734  -27.2570 O   0  0  0  0  0  0  0  0  0  0  0  0
  -15.4059   18.1537  -25.9758 N   0  0  0  0  0  0  0  0  0  0  0  0
  -14.7094   18.1245  -24.7256 C   0  0  0  0  0  0  0  0  0  0  0  0
  -13.3176   18.2777  -24.7096 C   0  0  0  0  0  0  0  0  0  0  0  0
  -12.6135   18.2401  -23.5008 C   0  0  0  0  0  0  0  0  0  0  0  0
  -10.8641   18.4168  -23.5281 Cl  0  0  0  0  0  0  0  0  0  0  0  0
  -13.3090   18.0608  -22.2933 C   0  0  0  0  0  0  0  0  0  0  0  0
  -12.4628   18.0077  -20.7528 Cl  0  0  0  0  0  0  0  0  0  0  0  0
  -14.7023   17.9318  -22.3060 C   0  0  0  0  0  0  0  0  0  0  0  0
  -15.4061   17.9689  -23.5145 C   0  0  0  0  0  0  0  0  0  0  0  0
  -17.1614   17.8928  -23.4814 Cl  0  0  0  0  0  0  0  0  0  0  0  0
  -16.5268   15.2145  -26.7689 N   0  0  0  0  0  0  0  0  0  0  0  0
  -16.3511   14.6175  -25.5666 C   0  0  0  0  0  0  0  0  0  0  0  0
  -17.4638   14.2558  -24.8004 C   0  0  0  0  0  0  0  0  0  0  0  0
  -17.2912   13.6465  -23.5496 C   0  0  0  0  0  0  0  0  0  0  0  0
  -18.4023   13.2834  -22.7721 C   0  0  0  0  0  0  0  0  0  0  0  0
  -18.2190   12.6771  -21.5261 C   0  0  0  0  0  0  0  0  0  0  0  0
  -16.9299   12.4291  -21.0475 C   0  0  0  0  0  0  0  0  0  0  0  0
  -15.8149   12.7856  -21.8114 C   0  0  0  0  0  0  0  0  0  0  0  0
  -15.9844   13.3956  -23.0647 C   0  0  0  0  0  0  0  0  0  0  0  0
  -14.8717   13.7580  -23.8390 C   0  0  0  0  0  0  0  0  0  0  0  0
  -15.0503   14.3717  -25.0927 C   0  0  0  0  0  0  0  0  0  0  0  0
  -13.9662   14.7480  -25.9051 C   0  0  0  0  0  0  0  0  0  0  0  0
  -12.7852   14.5112  -25.5216 O   0  0  0  0  0  0  0  0  0  0  0  0
  -11.8632   16.1424  -27.3914 C   0  0  0  0  0  0  0  0  0  0  0  0
  -10.7779   16.4734  -28.2075 C   0  0  0  0  0  0  0  0  0  0  0  0
  1  2  1  0
  2  3  2  0
  2  4  2  0
  2  5  1  0
  5  6  2  0
  6  7  1  0
  7  8  2  0
  8  9  1  0
  8 38  1  0
  9 10  1  0
 10 11  1  0
 10 25  2  0
 11 12  1  0
 12 13  1  0
 13 14  2  0
 13 15  1  0
 15 16  1  0
 16 17  2  0
 17 18  1  0
 18 19  1  0
 18 20  2  0
 20 21  1  0
 20 22  1  0
 22 23  2  0
 23 24  1  0
 23 16  1  0
 25 26  1  0
 26 27  2  0
 27 28  1  0
 28 29  2  0
 29 30  1  0
 30 31  2  0
 31 32  1  0
 32 33  2  0
 33 34  1  0
 33 28  1  0
 34 35  2  0
 35 36  1  0
 35 26  1  0
 36 37  2  0
 36  9  1  0
 38 39  2  0
 39  5  1  0
M  END
$$$$
CHEMBL1830130_plants_01
     RDKit          3D

 18 19  0  0  0  0  0  0  0  0999 V2000
  -10.8989   13.4124  -28.8536 C   0  0  0  0  0  0  0  0  0  0  0  0
  -12.0837   13.9821  -28.1767 C   0  0  0  0  0  0  0  0  0  0  0  0
  -12.7478   13.2932  -27.3554 O   0  0  0  0  0  0  0  0  0  0  0  0
  -12.4591   15.3408  -28.4518 N   0  0  0  0  0  0  0  0  0  0  0  0
  -13.4454   16.0737  -27.7049 C   0  0  0  0  0  0  0  0  0  0  0  0
  -14.4546   15.4164  -26.9787 C   0  0  0  0  0  0  0  0  0  0  0  0
  -15.3911   16.1527  -26.2486 C   0  0  0  0  0  0  0  0  0  0  0  0
  -15.3200   17.5471  -26.2192 C   0  0  0  0  0  0  0  0  0  0  0  0
  -14.2949   18.2155  -26.9041 C   0  0  0  0  0  0  0  0  0  0  0  0
  -14.2345   19.7142  -26.8932 C   0  0  0  0  0  0  0  0  0  0  0  0
  -13.3656   17.4741  -27.6510 C   0  0  0  0  0  0  0  0  0  0  0  0
  -10.1338   14.0439  -29.7580 C   0  0  0  0  0  0  0  0  0  0  0  0
  -10.2257   15.4767  -30.1066 C   0  0  0  0  0  0  0  0  0  0  0  0
  -10.0493   16.4771  -29.1336 C   0  0  0  0  0  0  0  0  0  0  0  0
  -10.0917   17.8269  -29.4963 C   0  0  0  0  0  0  0  0  0  0  0  0
  -10.2883   18.1872  -30.8321 C   0  0  0  0  0  0  0  0  0  0  0  0
  -10.4329   17.1981  -31.8086 C   0  0  0  0  0  0  0  0  0  0  0  0
  -10.3913   15.8472  -31.4498 C   0  0  0  0  0  0  0  0  0  0  0  0
  1  2  1  0
  1 12  2  0
  2  3  2  0
  2  4  1  0
  4  5  1  0
  5  6  2  0
  6  7  1  0
  7  8  2  0
  8  9  1  0
  9 10  1  0
  9 11  2  0
 11  5  1  0
 12 13  1  0
 13 14  2  0
 14 15  1  0
 15 16  2  0
 16 17  1  0
 17 18  2  0
 18 13  1  0
M  END
$$$$
CHEMBL1830130_plants_02
     RDKit          3D

 18 19  0  0  0  0  0  0  0  0999 V2000
  -13.9002   13.2217  -27.4400 C   0  0  0  0  0  0  0  0  0  0  0  0
  -12.6445   13.4776  -28.1778 C   0  0  0  0  0  0  0  0  0  0  0  0
  -12.0801   12.5545  -28.8256 O   0  0  0  0  0  0  0  0  0  0  0  0
  -12.0835   14.7997  -28.1641 N   0  0  0  0  0  0  0  0  0  0  0  0
  -11.0012   15.2270  -29.0090 C   0  0  0  0  0  0  0  0  0  0  0  0
  -10.2412   14.3056  -29.7514 C   0  0  0  0  0  0  0  0  0  0  0  0
   -9.2050   14.7495  -30.5768 C   0  0  0  0  0  0  0  0  0  0  0  0
   -8.9289   16.1141  -30.6855 C   0  0  0  0  0  0  0  0  0  0  0  0
   -9.7045   17.0485  -29.9841 C   0  0  0  0  0  0  0  0  0  0  0  0
   -9.3908   18.5121  -30.0812 C   0  0  0  0  0  0  0  0  0  0  0  0
  -10.7337   16.5986  -29.1419 C   0  0  0  0  0  0  0  0  0  0  0  0
  -14.5722   14.1192  -26.7017 C   0  0  0  0  0  0  0  0  0  0  0  0
  -14.2809   15.5662  -26.6382 C   0  0  0  0  0  0  0  0  0  0  0  0
  -13.1492   16.0537  -25.9598 C   0  0  0  0  0  0  0  0  0  0  0  0
  -12.8672   17.4232  -25.9550 C   0  0  0  0  0  0  0  0  0  0  0  0
  -13.6978   18.3116  -26.6433 C   0  0  0  0  0  0  0  0  0  0  0  0
  -14.8061   17.8305  -27.3454 C   0  0  0  0  0  0  0  0  0  0  0  0
  -15.0916   16.4616  -27.3523 C   0  0  0  0  0  0  0  0  0  0  0  0
  1  2  1  0
  1 12  2  0
  2  3  2  0
  2  4  1  0
  4  5  1  0
  5  6  2  0
  6  7  1  0
  7  8  2  0
  8  9  1  0
  9 10  1  0
  9 11  2  0
 11  5  1  0
 12 13  1  0
 13 14  2  0
 14 15  1  0
 15 16  2  0
 16 17  1  0
 17 18  2  0
 18 13  1  0
M  END
$$$$
CHEMBL1830130_plants_03
     RDKit          3D

 18 19  0  0  0  0  0  0  0  0999 V2000
  -10.5949   13.4600  -29.4260 C   0  0  0  0  0  0  0  0  0  0  0  0
  -11.6998   13.9806  -28.5924 C   0  0  0  0  0  0  0  0  0  0  0  0
  -11.9486   15.2163  -28.5539 O   0  0  0  0  0  0  0  0  0  0  0  0
  -12.5017   13.0570  -27.8396 N   0  0  0  0  0  0  0  0  0  0  0  0
  -13.7263   13.4076  -27.1724 C   0  0  0  0  0  0  0  0  0  0  0  0
  -13.9990   14.7321  -26.7862 C   0  0  0  0  0  0  0  0  0  0  0  0
  -15.2040   15.0478  -26.1532 C   0  0  0  0  0  0  0  0  0  0  0  0
  -16.1550   14.0530  -25.9166 C   0  0  0  0  0  0  0  0  0  0  0  0
  -15.9158   12.7354  -26.3330 C   0  0  0  0  0  0  0  0  0  0  0  0
  -16.9266   11.6625  -26.0555 C   0  0  0  0  0  0  0  0  0  0  0  0
  -14.6970   12.4176  -26.9532 C   0  0  0  0  0  0  0  0  0  0  0  0
   -9.8648   14.1759  -30.2958 C   0  0  0  0  0  0  0  0  0  0  0  0
   -9.9100   15.6449  -30.4465 C   0  0  0  0  0  0  0  0  0  0  0  0
  -10.3322   16.2425  -31.6478 C   0  0  0  0  0  0  0  0  0  0  0  0
  -10.4138   17.6346  -31.7507 C   0  0  0  0  0  0  0  0  0  0  0  0
  -10.0964   18.4377  -30.6521 C   0  0  0  0  0  0  0  0  0  0  0  0
   -9.7064   17.8495  -29.4460 C   0  0  0  0  0  0  0  0  0  0  0  0
   -9.6234   16.4577  -29.3393 C   0  0  0  0  0  0  0  0  0  0  0  0
  1  2  1  0
  1 12  2  0
  2  3  2  0
  2  4  1  0
  4  5  1  0
  5  6  2  0
  6  7  1  0
  7  8  2  0
  8  9  1  0
  9 10  1  0
  9 11  2  0
 11  5  1  0
 12 13  1  0
 13 14  2  0
 14 15  1  0
 15 16  2  0
 16 17  1  0
 17 18  2  0
 18 13  1  0
M  END
$$$$
CHEMBL1830130_plants_04
     RDKit          3D

 18 19  0  0  0  0  0  0  0  0999 V2000
  -12.9190   13.4443  -27.2419 C   0  0  0  0  0  0  0  0  0  0  0  0
  -12.0295   14.1268  -28.2060 C   0  0  0  0  0  0  0  0  0  0  0  0
  -11.5897   13.5164  -29.2181 O   0  0  0  0  0  0  0  0  0  0  0  0
  -11.6869   15.5041  -27.9859 N   0  0  0  0  0  0  0  0  0  0  0  0
  -11.0187   16.3347  -28.9510 C   0  0  0  0  0  0  0  0  0  0  0  0
  -10.0867   17.3121  -28.5588 C   0  0  0  0  0  0  0  0  0  0  0  0
   -9.4402   18.0950  -29.5187 C   0  0  0  0  0  0  0  0  0  0  0  0
   -9.7008   17.8991  -30.8765 C   0  0  0  0  0  0  0  0  0  0  0  0
  -10.5961   16.9005  -31.2859 C   0  0  0  0  0  0  0  0  0  0  0  0
  -10.8950   16.7081  -32.7432 C   0  0  0  0  0  0  0  0  0  0  0  0
  -11.2574   16.1271  -30.3186 C   0  0  0  0  0  0  0  0  0  0  0  0
  -13.6562   14.0453  -26.2945 C   0  0  0  0  0  0  0  0  0  0  0  0
  -13.8534   15.5032  -26.1592 C   0  0  0  0  0  0  0  0  0  0  0  0
  -14.2200   16.2954  -27.2622 C   0  0  0  0  0  0  0  0  0  0  0  0
  -14.4492   17.6652  -27.0998 C   0  0  0  0  0  0  0  0  0  0  0  0
  -14.3359   18.2490  -25.8353 C   0  0  0  0  0  0  0  0  0  0  0  0
  -14.0027   17.4621  -24.7296 C   0  0  0  0  0  0  0  0  0  0  0  0
  -13.7725   16.0919  -24.8881 C   0  0  0  0  0  0  0  0  0  0  0  0
  1  2  1  0
  1 12  2  0
  2  3  2  0
  2  4  1  0
  4  5  1  0
  5  6  2  0
  6  7  1  0
  7  8  2  0
  8  9  1  0
  9 10  1  0
  9 11  2  0
 11  5  1  0
 12 13  1  0
 13 14  2  0
 14 15  1  0
 15 16  2  0
 16 17  1  0
 17 18  2  0
 18 13  1  0
M  END
$$$$
CHEMBL1830130_plants_05
     RDKit          3D

 18 19  0  0  0  0  0  0  0  0999 V2000
  -12.9138   14.2345  -27.8283 C   0  0  0  0  0  0  0  0  0  0  0  0
  -13.3259   15.3882  -27.0003 C   0  0  0  0  0  0  0  0  0  0  0  0
  -13.2907   15.3211  -25.7415 O   0  0  0  0  0  0  0  0  0  0  0  0
  -13.7499   16.5974  -27.6491 N   0  0  0  0  0  0  0  0  0  0  0  0
  -13.9630   17.8469  -26.9699 C   0  0  0  0  0  0  0  0  0  0  0  0
  -14.8967   18.7879  -27.4393 C   0  0  0  0  0  0  0  0  0  0  0  0
  -15.0953   19.9876  -26.7510 C   0  0  0  0  0  0  0  0  0  0  0  0
  -14.3812   20.2524  -25.5805 C   0  0  0  0  0  0  0  0  0  0  0  0
  -13.4771   19.3063  -25.0767 C   0  0  0  0  0  0  0  0  0  0  0  0
  -12.6916   19.6026  -23.8336 C   0  0  0  0  0  0  0  0  0  0  0  0
  -13.2667   18.1093  -25.7796 C   0  0  0  0  0  0  0  0  0  0  0  0
  -12.1735   14.2970  -28.9465 C   0  0  0  0  0  0  0  0  0  0  0  0
  -11.4862   15.5030  -29.4524 C   0  0  0  0  0  0  0  0  0  0  0  0
  -11.0300   16.5044  -28.5762 C   0  0  0  0  0  0  0  0  0  0  0  0
  -10.3384   17.6132  -29.0737 C   0  0  0  0  0  0  0  0  0  0  0  0
  -10.0787   17.7201  -30.4426 C   0  0  0  0  0  0  0  0  0  0  0  0
  -10.5016   16.7135  -31.3147 C   0  0  0  0  0  0  0  0  0  0  0  0
  -11.1937   15.6032  -30.8210 C   0  0  0  0  0  0  0  0  0  0  0  0
  1  2  1  0
  1 12  2  0
  2  3  2  0
  2  4  1  0
  4  5  1  0
  5  6  2  0
  6  7  1  0
  7  8  2  0
  8  9  1  0
  9 10  1  0
  9 11  2  0
 11  5  1  0
 12 13  1  0
 13 14  2  0
 14 15  1  0
 15 16  2  0
 16 17  1  0
 17 18  2  0
 18 13  1  0
M  END
$$$$
CHEMBL1830130_plants_06
     RDKit          3D

 18 19  0  0  0  0  0  0  0  0999 V2000
  -15.8345   14.9968  -24.9267 C   0  0  0  0  0  0  0  0  0  0  0  0
  -14.8476   14.4830  -25.9006 C   0  0  0  0  0  0  0  0  0  0  0  0
  -15.0123   13.3603  -26.4509 O   0  0  0  0  0  0  0  0  0  0  0  0
  -13.7051   15.2892  -26.2285 N   0  0  0  0  0  0  0  0  0  0  0  0
  -12.7993   15.0056  -27.3088 C   0  0  0  0  0  0  0  0  0  0  0  0
  -12.6491   13.7036  -27.8187 C   0  0  0  0  0  0  0  0  0  0  0  0
  -11.7734   13.4587  -28.8795 C   0  0  0  0  0  0  0  0  0  0  0  0
  -11.0549   14.5093  -29.4542 C   0  0  0  0  0  0  0  0  0  0  0  0
  -11.2248   15.8197  -28.9846 C   0  0  0  0  0  0  0  0  0  0  0  0
  -10.4335   16.9435  -29.5852 C   0  0  0  0  0  0  0  0  0  0  0  0
  -12.0922   16.0603  -27.9072 C   0  0  0  0  0  0  0  0  0  0  0  0
  -16.0261   16.2878  -24.6121 C   0  0  0  0  0  0  0  0  0  0  0  0
  -15.4164   17.4389  -25.3091 C   0  0  0  0  0  0  0  0  0  0  0  0
  -15.3097   17.4697  -26.7114 C   0  0  0  0  0  0  0  0  0  0  0  0
  -14.7739   18.5911  -27.3520 C   0  0  0  0  0  0  0  0  0  0  0  0
  -14.3617   19.6958  -26.6019 C   0  0  0  0  0  0  0  0  0  0  0  0
  -14.4939   19.6843  -25.2108 C   0  0  0  0  0  0  0  0  0  0  0  0
  -15.0290   18.5646  -24.5665 C   0  0  0  0  0  0  0  0  0  0  0  0
  1  2  1  0
  1 12  2  0
  2  3  2  0
  2  4  1  0
  4  5  1  0
  5  6  2  0
  6  7  1  0
  7  8  2  0
  8  9  1  0
  9 10  1  0
  9 11  2  0
 11  5  1  0
 12 13  1  0
 13 14  2  0
 14 15  1  0
 15 16  2  0
 16 17  1  0
 17 18  2  0
 18 13  1  0
M  END
$$$$
CHEMBL1830130_plants_07
     RDKit          3D

 18 19  0  0  0  0  0  0  0  0999 V2000
  -11.6440   13.1149  -28.6164 C   0  0  0  0  0  0  0  0  0  0  0  0
  -12.5679   13.8222  -27.7039 C   0  0  0  0  0  0  0  0  0  0  0  0
  -12.7443   13.4133  -26.5241 O   0  0  0  0  0  0  0  0  0  0  0  0
  -13.2498   14.9961  -28.1726 N   0  0  0  0  0  0  0  0  0  0  0  0
  -13.9951   15.8893  -27.3273 C   0  0  0  0  0  0  0  0  0  0  0  0
  -14.1458   17.2501  -27.6487 C   0  0  0  0  0  0  0  0  0  0  0  0
  -14.8886   18.0926  -26.8176 C   0  0  0  0  0  0  0  0  0  0  0  0
  -15.5033   17.5848  -25.6712 C   0  0  0  0  0  0  0  0  0  0  0  0
  -15.3973   16.2217  -25.3592 C   0  0  0  0  0  0  0  0  0  0  0  0
  -16.0362   15.6822  -24.1139 C   0  0  0  0  0  0  0  0  0  0  0  0
  -14.6359   15.3810  -26.1865 C   0  0  0  0  0  0  0  0  0  0  0  0
  -10.8947   13.6877  -29.5717 C   0  0  0  0  0  0  0  0  0  0  0  0
  -10.7193   15.1417  -29.7659 C   0  0  0  0  0  0  0  0  0  0  0  0
  -10.6536   15.7031  -31.0540 C   0  0  0  0  0  0  0  0  0  0  0  0
  -10.5368   17.0874  -31.2132 C   0  0  0  0  0  0  0  0  0  0  0  0
  -10.5066   17.9212  -30.0922 C   0  0  0  0  0  0  0  0  0  0  0  0
  -10.6030   17.3726  -28.8106 C   0  0  0  0  0  0  0  0  0  0  0  0
  -10.7197   15.9887  -28.6473 C   0  0  0  0  0  0  0  0  0  0  0  0
  1  2  1  0
  1 12  2  0
  2  3  2  0
  2  4  1  0
  4  5  1  0
  5  6  2  0
  6  7  1  0
  7  8  2  0
  8  9  1  0
  9 10  1  0
  9 11  2  0
 11  5  1  0
 12 13  1  0
 13 14  2  0
 14 15  1  0
 15 16  2  0
 16 17  1  0
 17 18  2  0
 18 13  1  0
M  END
$$$$
CHEMBL1830130_plants_08
     RDKit          3D

 18 19  0  0  0  0  0  0  0  0999 V2000
   -9.2857   13.4747  -29.9538 C   0  0  0  0  0  0  0  0  0  0  0  0
  -10.6441   13.5095  -29.3706 C   0  0  0  0  0  0  0  0  0  0  0  0
  -11.3398   12.4602  -29.2988 O   0  0  0  0  0  0  0  0  0  0  0  0
  -11.1561   14.7533  -28.8672 N   0  0  0  0  0  0  0  0  0  0  0  0
  -12.3580   14.8758  -28.0871 C   0  0  0  0  0  0  0  0  0  0  0  0
  -12.9372   13.7633  -27.4511 C   0  0  0  0  0  0  0  0  0  0  0  0
  -14.0968   13.9133  -26.6861 C   0  0  0  0  0  0  0  0  0  0  0  0
  -14.6783   15.1735  -26.5317 C   0  0  0  0  0  0  0  0  0  0  0  0
  -14.0894   16.2994  -27.1251 C   0  0  0  0  0  0  0  0  0  0  0  0
  -14.7291   17.6484  -26.9802 C   0  0  0  0  0  0  0  0  0  0  0  0
  -12.9343   16.1431  -27.9075 C   0  0  0  0  0  0  0  0  0  0  0  0
   -8.6790   14.4901  -30.5886 C   0  0  0  0  0  0  0  0  0  0  0  0
   -9.1821   15.8773  -30.6617 C   0  0  0  0  0  0  0  0  0  0  0  0
  -10.3000   16.2075  -31.4492 C   0  0  0  0  0  0  0  0  0  0  0  0
  -10.7881   17.5177  -31.4641 C   0  0  0  0  0  0  0  0  0  0  0  0
  -10.1796   18.5006  -30.6790 C   0  0  0  0  0  0  0  0  0  0  0  0
   -9.0882   18.1725  -29.8704 C   0  0  0  0  0  0  0  0  0  0  0  0
   -8.5970   16.8633  -29.8529 C   0  0  0  0  0  0  0  0  0  0  0  0
  1  2  1  0
  1 12  2  0
  2  3  2  0
  2  4  1  0
  4  5  1  0
  5  6  2  0
  6  7  1  0
  7  8  2  0
  8  9  1  0
  9 10  1  0
  9 11  2  0
 11  5  1  0
 12 13  1  0
 13 14  2  0
 14 15  1  0
 15 16  2  0
 16 17  1  0
 17 18  2  0
 18 13  1  0
M  END
$$$$
CHEMBL1830130_plants_09
     RDKit          3D

 18 19  0  0  0  0  0  0  0  0999 V2000
  -12.9284   13.4596  -28.3281 C   0  0  0  0  0  0  0  0  0  0  0  0
  -13.1521   14.4348  -27.2393 C   0  0  0  0  0  0  0  0  0  0  0  0
  -12.8951   14.1321  -26.0424 O   0  0  0  0  0  0  0  0  0  0  0  0
  -13.6489   15.7426  -27.5645 N   0  0  0  0  0  0  0  0  0  0  0  0
  -13.7005   16.8409  -26.6376 C   0  0  0  0  0  0  0  0  0  0  0  0
  -12.9931   16.8102  -25.4226 C   0  0  0  0  0  0  0  0  0  0  0  0
  -13.0483   17.8978  -24.5472 C   0  0  0  0  0  0  0  0  0  0  0  0
  -13.7914   19.0318  -24.8817 C   0  0  0  0  0  0  0  0  0  0  0  0
  -14.4686   19.0947  -26.1081 C   0  0  0  0  0  0  0  0  0  0  0  0
  -15.2876   20.3025  -26.4551 C   0  0  0  0  0  0  0  0  0  0  0  0
  -14.4256   17.9936  -26.9780 C   0  0  0  0  0  0  0  0  0  0  0  0
  -12.0578   13.6007  -29.3401 C   0  0  0  0  0  0  0  0  0  0  0  0
  -11.0400   14.6658  -29.4521 C   0  0  0  0  0  0  0  0  0  0  0  0
   -9.7690   14.4061  -29.9960 C   0  0  0  0  0  0  0  0  0  0  0  0
   -8.8392   15.4409  -30.1374 C   0  0  0  0  0  0  0  0  0  0  0  0
   -9.1774   16.7428  -29.7584 C   0  0  0  0  0  0  0  0  0  0  0  0
  -10.4492   17.0135  -29.2466 C   0  0  0  0  0  0  0  0  0  0  0  0
  -11.3816   15.9813  -29.1034 C   0  0  0  0  0  0  0  0  0  0  0  0
  1  2  1  0
  1 12  2  0
  2  3  2  0
  2  4  1  0
  4  5  1  0
  5  6  2  0
  6  7  1  0
  7  8  2  0
  8  9  1  0
  9 10  1  0
  9 11  2  0
 11  5  1  0
 12 13  1  0
 13 14  2  0
 14 15  1  0
 15 16  2  0
 16 17  1  0
 17 18  2  0
 18 13  1  0
M  END
$$$$
CHEMBL1830130_plants_10
     RDKit          3D

 18 19  0  0  0  0  0  0  0  0999 V2000
  -11.8353   14.8239  -28.5278 C   0  0  0  0  0  0  0  0  0  0  0  0
  -12.6873   13.6211  -28.4095 C   0  0  0  0  0  0  0  0  0  0  0  0
  -12.2925   12.5079  -28.8511 O   0  0  0  0  0  0  0  0  0  0  0  0
  -13.9663   13.7320  -27.7656 N   0  0  0  0  0  0  0  0  0  0  0  0
  -14.7846   12.6089  -27.3953 C   0  0  0  0  0  0  0  0  0  0  0  0
  -15.5690   12.6250  -26.2282 C   0  0  0  0  0  0  0  0  0  0  0  0
  -16.3672   11.5261  -25.9002 C   0  0  0  0  0  0  0  0  0  0  0  0
  -16.4065   10.4109  -26.7398 C   0  0  0  0  0  0  0  0  0  0  0  0
  -15.6624   10.3964  -27.9283 C   0  0  0  0  0  0  0  0  0  0  0  0
  -15.6851    9.1878  -28.8165 C   0  0  0  0  0  0  0  0  0  0  0  0
  -14.8478   11.4947  -28.2466 C   0  0  0  0  0  0  0  0  0  0  0  0
  -12.1001   16.0274  -27.9952 C   0  0  0  0  0  0  0  0  0  0  0  0
  -13.1936   16.3224  -27.0466 C   0  0  0  0  0  0  0  0  0  0  0  0
  -14.2018   17.2514  -27.3613 C   0  0  0  0  0  0  0  0  0  0  0  0
  -15.2538   17.4779  -26.4683 C   0  0  0  0  0  0  0  0  0  0  0  0
  -15.3191   16.7653  -25.2680 C   0  0  0  0  0  0  0  0  0  0  0  0
  -14.3378   15.8182  -24.9634 C   0  0  0  0  0  0  0  0  0  0  0  0
  -13.2842   15.5891  -25.8537 C   0  0  0  0  0  0  0  0  0  0  0  0
  1  2  1  0
  1 12  2  0
  2  3  2  0
  2  4  1  0
  4  5  1  0
  5  6  2  0
  6  7  1  0
  7  8  2  0
  8  9  1  0
  9 10  1  0
  9 11  2  0
 11  5  1  0
 12 13  1  0
 13 14  2  0
 14 15  1  0
 15 16  2  0
 16 17  1  0
 17 18  2  0
 18 13  1  0
M  END
$$$$
CHEMBL504173_plants_01
     RDKit          3D

 20 20  0  0  0  0  0  0  0  0999 V2000
  -13.9627   20.7318  -25.4330 N   0  0  0  0  0  0  0  0  0  0  0  0
  -14.8165   19.6496  -25.8031 C   0  0  0  0  0  0  0  0  0  0  0  0
  -16.0200   19.6624  -25.4276 O   0  0  0  0  0  0  0  0  0  0  0  0
  -14.3089   18.5240  -26.6225 C   0  0  0  0  0  0  0  0  0  0  0  0
  -15.2560   17.5206  -27.0590 C   0  0  0  0  0  0  0  0  0  0  0  0
  -16.0131   16.7175  -27.4073 N   0  0  0  0  0  0  0  0  0  0  0  0
  -12.9933   18.4088  -26.8973 C   0  0  0  0  0  0  0  0  0  0  0  0
  -12.3930   17.3250  -27.7111 C   0  0  0  0  0  0  0  0  0  0  0  0
  -11.4779   17.5994  -28.7341 C   0  0  0  0  0  0  0  0  0  0  0  0
  -10.9118   16.5654  -29.5051 C   0  0  0  0  0  0  0  0  0  0  0  0
   -9.9707   16.9100  -30.6576 C   0  0  0  0  0  0  0  0  0  0  0  0
   -9.2052   18.2003  -30.3501 C   0  0  0  0  0  0  0  0  0  0  0  0
  -10.6865   17.0120  -32.0159 C   0  0  0  0  0  0  0  0  0  0  0  0
  -11.1845   15.2176  -29.1422 C   0  0  0  0  0  0  0  0  0  0  0  0
  -10.5404   14.1446  -29.7691 O   0  0  0  0  0  0  0  0  0  0  0  0
  -12.1061   14.9354  -28.1063 C   0  0  0  0  0  0  0  0  0  0  0  0
  -12.4404   13.4988  -27.7211 C   0  0  0  0  0  0  0  0  0  0  0  0
  -12.6922   12.6325  -28.9624 C   0  0  0  0  0  0  0  0  0  0  0  0
  -13.6369   13.4503  -26.7633 C   0  0  0  0  0  0  0  0  0  0  0  0
  -12.6927   15.9984  -27.3983 C   0  0  0  0  0  0  0  0  0  0  0  0
  1  2  1  0
  2  3  2  0
  2  4  1  0
  4  5  1  0
  4  7  2  0
  5  6  3  0
  7  8  1  0
  8  9  2  0
  9 10  1  0
 10 11  1  0
 10 14  2  0
 11 12  1  0
 11 13  1  0
 14 15  1  0
 14 16  1  0
 16 17  1  0
 16 20  2  0
 17 18  1  0
 17 19  1  0
 20  8  1  0
M  END
$$$$
CHEMBL504173_plants_02
     RDKit          3D

 20 20  0  0  0  0  0  0  0  0999 V2000
  -13.8657   20.8060  -25.5485 N   0  0  0  0  0  0  0  0  0  0  0  0
  -14.7375   19.7454  -25.9390 C   0  0  0  0  0  0  0  0  0  0  0  0
  -15.9604   19.8160  -25.6404 O   0  0  0  0  0  0  0  0  0  0  0  0
  -14.2256   18.5755  -26.6907 C   0  0  0  0  0  0  0  0  0  0  0  0
  -15.1800   17.5807  -27.1311 C   0  0  0  0  0  0  0  0  0  0  0  0
  -15.9426   16.7845  -27.4834 N   0  0  0  0  0  0  0  0  0  0  0  0
  -12.9028   18.4152  -26.9009 C   0  0  0  0  0  0  0  0  0  0  0  0
  -12.2975   17.2848  -27.6445 C   0  0  0  0  0  0  0  0  0  0  0  0
  -12.6689   15.9593  -27.3903 C   0  0  0  0  0  0  0  0  0  0  0  0
  -12.0892   14.8891  -28.0991 C   0  0  0  0  0  0  0  0  0  0  0  0
  -12.4699   13.4530  -27.7448 C   0  0  0  0  0  0  0  0  0  0  0  0
  -12.7761   12.6560  -29.0162 C   0  0  0  0  0  0  0  0  0  0  0  0
  -13.6408   13.3634  -26.7505 C   0  0  0  0  0  0  0  0  0  0  0  0
  -11.2088   15.1832  -29.1766 C   0  0  0  0  0  0  0  0  0  0  0  0
  -10.7146   14.1774  -30.0154 O   0  0  0  0  0  0  0  0  0  0  0  0
  -10.8332   16.5218  -29.4396 C   0  0  0  0  0  0  0  0  0  0  0  0
   -9.8650   16.8597  -30.5676 C   0  0  0  0  0  0  0  0  0  0  0  0
   -9.1805   18.2121  -30.3290 C   0  0  0  0  0  0  0  0  0  0  0  0
  -10.5737   16.8329  -31.9272 C   0  0  0  0  0  0  0  0  0  0  0  0
  -11.3922   17.5572  -28.6710 C   0  0  0  0  0  0  0  0  0  0  0  0
  1  2  1  0
  2  3  2  0
  2  4  1  0
  4  5  1  0
  4  7  2  0
  5  6  3  0
  7  8  1  0
  8  9  2  0
  9 10  1  0
 10 11  1  0
 10 14  2  0
 11 12  1  0
 11 13  1  0
 14 15  1  0
 14 16  1  0
 16 17  1  0
 16 20  2  0
 17 18  1  0
 17 19  1  0
 20  8  1  0
M  END
$$$$
CHEMBL504173_plants_03
     RDKit          3D

 20 20  0  0  0  0  0  0  0  0999 V2000
  -10.5803   15.2119  -29.9079 N   0  0  0  0  0  0  0  0  0  0  0  0
  -11.1567   14.0572  -29.2984 C   0  0  0  0  0  0  0  0  0  0  0  0
  -10.5959   12.9385  -29.4522 O   0  0  0  0  0  0  0  0  0  0  0  0
  -12.3933   14.1599  -28.4883 C   0  0  0  0  0  0  0  0  0  0  0  0
  -13.0931   15.4266  -28.4750 C   0  0  0  0  0  0  0  0  0  0  0  0
  -13.6522   16.4399  -28.4636 N   0  0  0  0  0  0  0  0  0  0  0  0
  -12.8151   13.1213  -27.7381 C   0  0  0  0  0  0  0  0  0  0  0  0
  -14.0392   13.1263  -26.9021 C   0  0  0  0  0  0  0  0  0  0  0  0
  -14.3316   14.1892  -26.0395 C   0  0  0  0  0  0  0  0  0  0  0  0
  -15.4956   14.1879  -25.2464 C   0  0  0  0  0  0  0  0  0  0  0  0
  -15.7445   15.3329  -24.2667 C   0  0  0  0  0  0  0  0  0  0  0  0
  -14.4715   16.1656  -24.0893 C   0  0  0  0  0  0  0  0  0  0  0  0
  -16.2801   14.8599  -22.9039 C   0  0  0  0  0  0  0  0  0  0  0  0
  -16.4444   13.1446  -25.4311 C   0  0  0  0  0  0  0  0  0  0  0  0
  -17.6867   13.1604  -24.7862 O   0  0  0  0  0  0  0  0  0  0  0  0
  -16.1547   12.0699  -26.3046 C   0  0  0  0  0  0  0  0  0  0  0  0
  -17.1410   10.9230  -26.4943 C   0  0  0  0  0  0  0  0  0  0  0  0
  -17.3500   10.1453  -25.1881 C   0  0  0  0  0  0  0  0  0  0  0  0
  -16.6894    9.9905  -27.6248 C   0  0  0  0  0  0  0  0  0  0  0  0
  -14.9546   12.0815  -27.0360 C   0  0  0  0  0  0  0  0  0  0  0  0
  1  2  1  0
  2  3  2  0
  2  4  1  0
  4  5  1  0
  4  7  2  0
  5  6  3  0
  7  8  1  0
  8  9  2  0
  9 10  1  0
 10 11  1  0
 10 14  2  0
 11 12  1  0
 11 13  1  0
 14 15  1  0
 14 16  1  0
 16 17  1  0
 16 20  2  0
 17 18  1  0
 17 19  1  0
 20  8  1  0
M  END
$$$$
CHEMBL504173_plants_04
     RDKit          3D

 20 20  0  0  0  0  0  0  0  0999 V2000
  -10.8281   15.3322  -29.7271 N   0  0  0  0  0  0  0  0  0  0  0  0
  -11.3170   14.0897  -29.2227 C   0  0  0  0  0  0  0  0  0  0  0  0
  -10.6101   13.0541  -29.3541 O   0  0  0  0  0  0  0  0  0  0  0  0
  -12.6329   14.0064  -28.5464 C   0  0  0  0  0  0  0  0  0  0  0  0
  -13.4854   15.1756  -28.5732 C   0  0  0  0  0  0  0  0  0  0  0  0
  -14.1680   16.1100  -28.5946 N   0  0  0  0  0  0  0  0  0  0  0  0
  -12.9940   12.8943  -27.8738 C   0  0  0  0  0  0  0  0  0  0  0  0
  -14.2879   12.7148  -27.1730 C   0  0  0  0  0  0  0  0  0  0  0  0
  -15.0554   11.5561  -27.3394 C   0  0  0  0  0  0  0  0  0  0  0  0
  -16.2848   11.3917  -26.6720 C   0  0  0  0  0  0  0  0  0  0  0  0
  -17.1261   10.1440  -26.9334 C   0  0  0  0  0  0  0  0  0  0  0  0
  -16.7499    9.5231  -28.2818 C   0  0  0  0  0  0  0  0  0  0  0  0
  -18.6404   10.4065  -26.8582 C   0  0  0  0  0  0  0  0  0  0  0  0
  -16.6776   12.3698  -25.7172 C   0  0  0  0  0  0  0  0  0  0  0  0
  -17.8098   12.1960  -24.9126 O   0  0  0  0  0  0  0  0  0  0  0  0
  -15.9031   13.5410  -25.5430 C   0  0  0  0  0  0  0  0  0  0  0  0
  -16.3210   14.6195  -24.5498 C   0  0  0  0  0  0  0  0  0  0  0  0
  -15.4283   15.8620  -24.6673 C   0  0  0  0  0  0  0  0  0  0  0  0
  -16.3231   14.0758  -23.1160 C   0  0  0  0  0  0  0  0  0  0  0  0
  -14.7105   13.6923  -26.2711 C   0  0  0  0  0  0  0  0  0  0  0  0
  1  2  1  0
  2  3  2  0
  2  4  1  0
  4  5  1  0
  4  7  2  0
  5  6  3  0
  7  8  1  0
  8  9  2  0
  9 10  1  0
 10 11  1  0
 10 14  2  0
 11 12  1  0
 11 13  1  0
 14 15  1  0
 14 16  1  0
 16 17  1  0
 16 20  2  0
 17 18  1  0
 17 19  1  0
 20  8  1  0
M  END
$$$$
CHEMBL504173_plants_05
     RDKit          3D

 20 20  0  0  0  0  0  0  0  0999 V2000
   -8.7850   16.1469  -30.9515 N   0  0  0  0  0  0  0  0  0  0  0  0
   -9.3671   16.9676  -29.9391 C   0  0  0  0  0  0  0  0  0  0  0  0
   -8.7845   18.0346  -29.6049 O   0  0  0  0  0  0  0  0  0  0  0  0
  -10.6416   16.5849  -29.2871 C   0  0  0  0  0  0  0  0  0  0  0  0
  -11.3649   15.4516  -29.8227 C   0  0  0  0  0  0  0  0  0  0  0  0
  -11.9435   14.5458  -30.2519 N   0  0  0  0  0  0  0  0  0  0  0  0
  -11.1399   17.3119  -28.2659 C   0  0  0  0  0  0  0  0  0  0  0  0
  -12.4001   17.0055  -27.5480 C   0  0  0  0  0  0  0  0  0  0  0  0
  -12.7212   15.7001  -27.1583 C   0  0  0  0  0  0  0  0  0  0  0  0
  -13.9209   15.4147  -26.4776 C   0  0  0  0  0  0  0  0  0  0  0  0
  -14.2679   13.9683  -26.1308 C   0  0  0  0  0  0  0  0  0  0  0  0
  -13.5246   13.0063  -27.0621 C   0  0  0  0  0  0  0  0  0  0  0  0
  -15.7803   13.6856  -26.1503 C   0  0  0  0  0  0  0  0  0  0  0  0
  -14.7483   16.4981  -26.0724 C   0  0  0  0  0  0  0  0  0  0  0  0
  -15.8753   16.2987  -25.2664 O   0  0  0  0  0  0  0  0  0  0  0  0
  -14.4258   17.8198  -26.4610 C   0  0  0  0  0  0  0  0  0  0  0  0
  -15.3148   18.9941  -26.0675 C   0  0  0  0  0  0  0  0  0  0  0  0
  -14.6709   20.3337  -26.4490 C   0  0  0  0  0  0  0  0  0  0  0  0
  -15.6529   18.9512  -24.5724 C   0  0  0  0  0  0  0  0  0  0  0  0
  -13.2470   18.0550  -27.1893 C   0  0  0  0  0  0  0  0  0  0  0  0
  1  2  1  0
  2  3  2  0
  2  4  1  0
  4  5  1  0
  4  7  2  0
  5  6  3  0
  7  8  1  0
  8  9  2  0
  9 10  1  0
 10 11  1  0
 10 14  2  0
 11 12  1  0
 11 13  1  0
 14 15  1  0
 14 16  1  0
 16 17  1  0
 16 20  2  0
 17 18  1  0
 17 19  1  0
 20  8  1  0
M  END
$$$$
CHEMBL504173_plants_06
     RDKit          3D

 20 20  0  0  0  0  0  0  0  0999 V2000
  -15.9150   18.0928  -23.6498 N   0  0  0  0  0  0  0  0  0  0  0  0
  -15.6393   18.4773  -24.9965 C   0  0  0  0  0  0  0  0  0  0  0  0
  -15.8385   19.6722  -25.3457 O   0  0  0  0  0  0  0  0  0  0  0  0
  -15.1196   17.4963  -25.9781 C   0  0  0  0  0  0  0  0  0  0  0  0
  -14.9655   17.9263  -27.3513 C   0  0  0  0  0  0  0  0  0  0  0  0
  -14.8413   18.2697  -28.4496 N   0  0  0  0  0  0  0  0  0  0  0  0
  -14.8594   16.2246  -25.6112 C   0  0  0  0  0  0  0  0  0  0  0  0
  -14.3331   15.1760  -26.5171 C   0  0  0  0  0  0  0  0  0  0  0  0
  -13.2895   15.4388  -27.4122 C   0  0  0  0  0  0  0  0  0  0  0  0
  -12.7944   14.4387  -28.2716 C   0  0  0  0  0  0  0  0  0  0  0  0
  -11.7023   14.7830  -29.2824 C   0  0  0  0  0  0  0  0  0  0  0  0
  -10.5950   13.7256  -29.2482 C   0  0  0  0  0  0  0  0  0  0  0  0
  -11.1161   16.1921  -29.0861 C   0  0  0  0  0  0  0  0  0  0  0  0
  -13.2844   13.1116  -28.1259 C   0  0  0  0  0  0  0  0  0  0  0  0
  -12.7324   12.0432  -28.8422 O   0  0  0  0  0  0  0  0  0  0  0  0
  -14.3368   12.8404  -27.2198 C   0  0  0  0  0  0  0  0  0  0  0  0
  -14.9019   11.4325  -27.0697 C   0  0  0  0  0  0  0  0  0  0  0  0
  -15.2327   10.8156  -28.4351 C   0  0  0  0  0  0  0  0  0  0  0  0
  -16.1294   11.4277  -26.1507 C   0  0  0  0  0  0  0  0  0  0  0  0
  -14.8417   13.8801  -26.4201 C   0  0  0  0  0  0  0  0  0  0  0  0
  1  2  1  0
  2  3  2  0
  2  4  1  0
  4  5  1  0
  4  7  2  0
  5  6  3  0
  7  8  1  0
  8  9  2  0
  9 10  1  0
 10 11  1  0
 10 14  2  0
 11 12  1  0
 11 13  1  0
 14 15  1  0
 14 16  1  0
 16 17  1  0
 16 20  2  0
 17 18  1  0
 17 19  1  0
 20  8  1  0
M  END
$$$$
CHEMBL504173_plants_07
     RDKit          3D

 20 20  0  0  0  0  0  0  0  0999 V2000
  -17.7769   13.7465  -22.5059 N   0  0  0  0  0  0  0  0  0  0  0  0
  -17.4119   13.6017  -23.8782 C   0  0  0  0  0  0  0  0  0  0  0  0
  -18.0250   12.7607  -24.5899 O   0  0  0  0  0  0  0  0  0  0  0  0
  -16.3335   14.4269  -24.4713 C   0  0  0  0  0  0  0  0  0  0  0  0
  -15.7051   15.4265  -23.6345 C   0  0  0  0  0  0  0  0  0  0  0  0
  -15.2024   16.2253  -22.9644 N   0  0  0  0  0  0  0  0  0  0  0  0
  -15.9948   14.2902  -25.7698 C   0  0  0  0  0  0  0  0  0  0  0  0
  -14.9284   15.0636  -26.4496 C   0  0  0  0  0  0  0  0  0  0  0  0
  -14.8357   16.4540  -26.3179 C   0  0  0  0  0  0  0  0  0  0  0  0
  -13.8211   17.1838  -26.9674 C   0  0  0  0  0  0  0  0  0  0  0  0
  -13.7949   18.7068  -26.8552 C   0  0  0  0  0  0  0  0  0  0  0  0
  -13.4833   19.1276  -25.4160 C   0  0  0  0  0  0  0  0  0  0  0  0
  -15.0904   19.3740  -27.3494 C   0  0  0  0  0  0  0  0  0  0  0  0
  -12.8050   16.4692  -27.6598 C   0  0  0  0  0  0  0  0  0  0  0  0
  -11.6895   17.1196  -28.2003 O   0  0  0  0  0  0  0  0  0  0  0  0
  -12.8925   15.0632  -27.7927 C   0  0  0  0  0  0  0  0  0  0  0  0
  -11.8336   14.2784  -28.5586 C   0  0  0  0  0  0  0  0  0  0  0  0
  -11.4889   14.9590  -29.8899 C   0  0  0  0  0  0  0  0  0  0  0  0
  -12.2774   12.8274  -28.7801 C   0  0  0  0  0  0  0  0  0  0  0  0
  -13.9535   14.3783  -27.1758 C   0  0  0  0  0  0  0  0  0  0  0  0
  1  2  1  0
  2  3  2  0
  2  4  1  0
  4  5  1  0
  4  7  2  0
  5  6  3  0
  7  8  1  0
  8  9  2  0
  9 10  1  0
 10 11  1  0
 10 14  2  0
 11 12  1  0
 11 13  1  0
 14 15  1  0
 14 16  1  0
 16 17  1  0
 16 20  2  0
 17 18  1  0
 17 19  1  0
 20  8  1  0
M  END
$$$$
CHEMBL504173_plants_08
     RDKit          3D

 20 20  0  0  0  0  0  0  0  0999 V2000
  -15.4778   19.8898  -25.0553 N   0  0  0  0  0  0  0  0  0  0  0  0
  -14.2417   19.3988  -24.5375 C   0  0  0  0  0  0  0  0  0  0  0  0
  -13.8888   19.7326  -23.3740 O   0  0  0  0  0  0  0  0  0  0  0  0
  -13.3794   18.5034  -25.3440 C   0  0  0  0  0  0  0  0  0  0  0  0
  -12.1906   17.9627  -24.7204 C   0  0  0  0  0  0  0  0  0  0  0  0
  -11.2403   17.5294  -24.2216 N   0  0  0  0  0  0  0  0  0  0  0  0
  -13.6640   18.2533  -26.6386 C   0  0  0  0  0  0  0  0  0  0  0  0
  -12.8672   17.3691  -27.5222 C   0  0  0  0  0  0  0  0  0  0  0  0
  -12.0561   17.8885  -28.5379 C   0  0  0  0  0  0  0  0  0  0  0  0
  -11.3023   17.0433  -29.3754 C   0  0  0  0  0  0  0  0  0  0  0  0
  -10.4837   17.6439  -30.5165 C   0  0  0  0  0  0  0  0  0  0  0  0
  -10.9162   17.0392  -31.8554 C   0  0  0  0  0  0  0  0  0  0  0  0
   -8.9652   17.4960  -30.3172 C   0  0  0  0  0  0  0  0  0  0  0  0
  -11.2741   15.6504  -29.0898 C   0  0  0  0  0  0  0  0  0  0  0  0
  -10.4323   14.7757  -29.7867 O   0  0  0  0  0  0  0  0  0  0  0  0
  -12.0897   15.1213  -28.0617 C   0  0  0  0  0  0  0  0  0  0  0  0
  -12.1022   13.6273  -27.7584 C   0  0  0  0  0  0  0  0  0  0  0  0
  -12.3394   12.8019  -29.0300 C   0  0  0  0  0  0  0  0  0  0  0  0
  -13.1424   13.2932  -26.6824 C   0  0  0  0  0  0  0  0  0  0  0  0
  -12.8711   15.9939  -27.2851 C   0  0  0  0  0  0  0  0  0  0  0  0
  1  2  1  0
  2  3  2  0
  2  4  1  0
  4  5  1  0
  4  7  2  0
  5  6  3  0
  7  8  1  0
  8  9  2  0
  9 10  1  0
 10 11  1  0
 10 14  2  0
 11 12  1  0
 11 13  1  0
 14 15  1  0
 14 16  1  0
 16 17  1  0
 16 20  2  0
 17 18  1  0
 17 19  1  0
 20  8  1  0
M  END
$$$$
CHEMBL504173_plants_09
     RDKit          3D

 20 20  0  0  0  0  0  0  0  0999 V2000
  -15.6609   20.6321  -26.1747 N   0  0  0  0  0  0  0  0  0  0  0  0
  -14.5542   20.1852  -25.3918 C   0  0  0  0  0  0  0  0  0  0  0  0
  -14.3166   20.7483  -24.2891 O   0  0  0  0  0  0  0  0  0  0  0  0
  -13.6931   19.0718  -25.8549 C   0  0  0  0  0  0  0  0  0  0  0  0
  -12.6148   18.6425  -24.9905 C   0  0  0  0  0  0  0  0  0  0  0  0
  -11.7518   18.2999  -24.2994 N   0  0  0  0  0  0  0  0  0  0  0  0
  -13.8732   18.5206  -27.0728 C   0  0  0  0  0  0  0  0  0  0  0  0
  -13.0689   17.4022  -27.6202 C   0  0  0  0  0  0  0  0  0  0  0  0
  -13.3832   16.0679  -27.3370 C   0  0  0  0  0  0  0  0  0  0  0  0
  -12.6144   15.0093  -27.8588 C   0  0  0  0  0  0  0  0  0  0  0  0
  -12.9473   13.5701  -27.4706 C   0  0  0  0  0  0  0  0  0  0  0  0
  -11.9985   13.0840  -26.3712 C   0  0  0  0  0  0  0  0  0  0  0  0
  -12.9375   12.6014  -28.6661 C   0  0  0  0  0  0  0  0  0  0  0  0
  -11.5839   15.3111  -28.7913 C   0  0  0  0  0  0  0  0  0  0  0  0
  -10.8812   14.3019  -29.4600 O   0  0  0  0  0  0  0  0  0  0  0  0
  -11.2650   16.6583  -29.0834 C   0  0  0  0  0  0  0  0  0  0  0  0
  -10.1425   17.0080  -30.0539 C   0  0  0  0  0  0  0  0  0  0  0  0
   -8.8875   16.1683  -29.7813 C   0  0  0  0  0  0  0  0  0  0  0  0
   -9.8232   18.5071  -30.0085 C   0  0  0  0  0  0  0  0  0  0  0  0
  -12.0212   17.6876  -28.4968 C   0  0  0  0  0  0  0  0  0  0  0  0
  1  2  1  0
  2  3  2  0
  2  4  1  0
  4  5  1  0
  4  7  2  0
  5  6  3  0
  7  8  1  0
  8  9  2  0
  9 10  1  0
 10 11  1  0
 10 14  2  0
 11 12  1  0
 11 13  1  0
 14 15  1  0
 14 16  1  0
 16 17  1  0
 16 20  2  0
 17 18  1  0
 17 19  1  0
 20  8  1  0
M  END
$$$$
CHEMBL504173_plants_10
     RDKit          3D

 20 20  0  0  0  0  0  0  0  0999 V2000
  -10.7611   15.0090  -30.1618 N   0  0  0  0  0  0  0  0  0  0  0  0
  -11.1929   14.0007  -29.2484 C   0  0  0  0  0  0  0  0  0  0  0  0
  -10.8074   12.8126  -29.4199 O   0  0  0  0  0  0  0  0  0  0  0  0
  -12.0769   14.3344  -28.1068 C   0  0  0  0  0  0  0  0  0  0  0  0
  -12.1247   13.4119  -26.9927 C   0  0  0  0  0  0  0  0  0  0  0  0
  -12.1639   12.6744  -26.1016 N   0  0  0  0  0  0  0  0  0  0  0  0
  -12.8587   15.4332  -28.1376 C   0  0  0  0  0  0  0  0  0  0  0  0
  -13.7685   15.8523  -27.0449 C   0  0  0  0  0  0  0  0  0  0  0  0
  -13.7921   17.1718  -26.5782 C   0  0  0  0  0  0  0  0  0  0  0  0
  -14.6577   17.5640  -25.5386 C   0  0  0  0  0  0  0  0  0  0  0  0
  -14.6047   18.9961  -25.0102 C   0  0  0  0  0  0  0  0  0  0  0  0
  -14.7452   19.9930  -26.1641 C   0  0  0  0  0  0  0  0  0  0  0  0
  -13.3398   19.2922  -24.1855 C   0  0  0  0  0  0  0  0  0  0  0  0
  -15.6086   16.6244  -25.0531 C   0  0  0  0  0  0  0  0  0  0  0  0
  -16.5942   16.9895  -24.1285 O   0  0  0  0  0  0  0  0  0  0  0  0
  -15.5908   15.2904  -25.5244 C   0  0  0  0  0  0  0  0  0  0  0  0
  -16.5779   14.2563  -24.9951 C   0  0  0  0  0  0  0  0  0  0  0  0
  -16.3900   14.0249  -23.4899 C   0  0  0  0  0  0  0  0  0  0  0  0
  -16.4655   12.9398  -25.7734 C   0  0  0  0  0  0  0  0  0  0  0  0
  -14.6720   14.9254  -26.5234 C   0  0  0  0  0  0  0  0  0  0  0  0
  1  2  1  0
  2  3  2  0
  2  4  1  0
  4  5  1  0
  4  7  2  0
  5  6  3  0
  7  8  1  0
  8  9  2  0
  9 10  1  0
 10 11  1  0
 10 14  2  0
 11 12  1  0
 11 13  1  0
 14 15  1  0
 14 16  1  0
 16 17  1  0
 16 20  2  0
 17 18  1  0
 17 19  1  0
 20  8  1  0
M  END
$$$$
CHEMBL4074615_plants_01
     RDKit          3D

 44 49  0  0  1  0  0  0  0  0999 V2000
  -15.7425    9.9801  -27.4104 C   0  0  0  0  0  0  0  0  0  0  0  0
  -15.9897   10.4782  -25.8573 C   0  0  0  0  0  0  0  0  0  0  0  0
  -16.6955   11.8814  -26.0432 C   0  0  0  0  0  0  0  0  0  0  0  0
  -17.9564   11.8531  -26.0458 O   0  0  0  0  0  0  0  0  0  0  0  0
  -16.1617   13.1269  -26.7617 N   0  0  0  0  0  0  0  0  0  0  0  0
  -16.4525   14.2034  -25.7231 C   0  0  0  0  0  0  0  0  0  0  0  0
  -16.0481   15.4595  -26.2495 C   0  0  0  0  0  0  0  0  0  0  0  0
  -14.7199   15.0895  -26.7560 C   0  0  2  0  0  0  0  0  0  0  0  0
  -14.1230   16.1064  -27.6563 N   0  0  0  0  0  0  0  0  0  0  0  0
  -12.8116   15.7523  -28.1860 C   0  0  0  0  0  0  0  0  0  0  0  0
  -12.3834   14.5391  -28.2010 O   0  0  0  0  0  0  0  0  0  0  0  0
  -12.1002   16.7851  -28.8904 N   0  0  0  0  0  0  0  0  0  0  0  0
  -10.7691   16.6498  -29.3834 C   0  0  0  0  0  0  0  0  0  0  0  0
  -10.0672   15.3844  -29.3210 C   0  0  0  0  0  0  0  0  0  0  0  0
   -8.6911   15.3484  -29.5077 C   0  0  0  0  0  0  0  0  0  0  0  0
   -8.0603   14.0953  -29.4399 O   0  0  0  0  0  0  0  0  0  0  0  0
   -8.7651   12.9081  -29.7774 C   0  0  0  0  0  0  0  0  0  0  0  0
   -8.0103   16.5675  -29.7498 C   0  0  0  0  0  0  0  0  0  0  0  0
   -8.6950   17.7311  -29.9883 C   0  0  0  0  0  0  0  0  0  0  0  0
  -10.0506   17.8578  -29.7254 C   0  0  0  0  0  0  0  0  0  0  0  0
  -10.6593   18.9719  -30.0747 F   0  0  0  0  0  0  0  0  0  0  0  0
  -12.8451   18.1065  -28.9379 C   0  0  0  0  0  0  0  0  0  0  0  0
  -13.5239   18.4200  -27.6532 C   0  0  0  0  0  0  0  0  0  0  0  0
  -13.5053   19.6651  -27.0130 C   0  0  0  0  0  0  0  0  0  0  0  0
  -14.0121   19.8530  -25.7599 N   0  0  0  0  0  0  0  0  0  0  0  0
  -14.5260   18.7388  -25.0722 C   0  0  0  0  0  0  0  0  0  0  0  0
  -15.0725   18.8797  -23.7981 N   0  0  0  0  0  0  0  0  0  0  0  0
  -15.6474   17.6068  -23.4008 C   0  0  0  0  0  0  0  0  0  0  0  0
  -17.0564   17.4928  -23.2665 C   0  0  0  0  0  0  0  0  0  0  0  0
  -17.6274   16.2485  -22.9528 C   0  0  0  0  0  0  0  0  0  0  0  0
  -16.8383   15.0618  -22.7977 C   0  0  0  0  0  0  0  0  0  0  0  0
  -17.4568   13.7459  -22.6243 N   0  0  0  0  0  0  0  0  0  0  0  0
  -16.6789   12.5903  -22.1318 C   0  0  0  0  0  0  0  0  0  0  0  0
  -16.9685   11.3302  -22.9952 C   0  0  0  0  0  0  0  0  0  0  0  0
  -18.3872   11.2020  -23.4220 N   0  0  0  0  0  0  0  0  0  0  0  0
  -19.1036   10.0809  -22.8249 C   0  0  0  0  0  0  0  0  0  0  0  0
  -19.2425   12.4082  -23.6442 C   0  0  0  0  0  0  0  0  0  0  0  0
  -18.9203   13.5718  -22.6640 C   0  0  0  0  0  0  0  0  0  0  0  0
  -15.4266   15.2031  -22.9724 C   0  0  0  0  0  0  0  0  0  0  0  0
  -14.8252   16.4346  -23.2506 C   0  0  0  0  0  0  0  0  0  0  0  0
  -13.3500   16.4368  -23.4833 C   0  0  0  0  0  0  0  0  0  0  0  0
  -14.5579   17.5341  -25.7047 N   0  0  0  0  0  0  0  0  0  0  0  0
  -14.0779   17.3592  -26.9753 C   0  0  0  0  0  0  0  0  0  0  0  0
  -14.8634   13.5605  -27.3131 C   0  0  0  0  0  0  0  0  0  0  0  0
  1  2  1  0
  2  3  1  0
  3  4  2  0
  5  3  1  0
  5  6  1  0
  6  7  1  0
  8  7  1  0
  8  9  1  6
  8 44  1  0
  9 10  1  0
 10 11  2  0
 10 12  1  0
 12 13  1  0
 12 22  1  0
 13 14  2  0
 14 15  1  0
 15 16  1  0
 15 18  2  0
 16 17  1  0
 18 19  1  0
 19 20  2  0
 20 21  1  0
 20 13  1  0
 22 23  1  0
 23 24  2  0
 24 25  1  0
 25 26  2  0
 26 27  1  0
 26 42  1  0
 27 28  1  0
 28 29  2  0
 29 30  1  0
 30 31  2  0
 31 32  1  0
 31 39  1  0
 32 33  1  0
 33 34  1  0
 34 35  1  0
 35 36  1  0
 35 37  1  0
 37 38  1  0
 38 32  1  0
 39 40  2  0
 40 41  1  0
 40 28  1  0
 42 43  2  0
 43  9  1  0
 43 23  1  0
 44  5  1  0
M  END
$$$$
CHEMBL4074615_plants_02
     RDKit          3D

 44 49  0  0  1  0  0  0  0  0999 V2000
  -15.7085   19.5190  -25.8971 C   0  0  0  0  0  0  0  0  0  0  0  0
  -16.2694   19.1878  -24.3816 C   0  0  0  0  0  0  0  0  0  0  0  0
  -15.1331   18.2694  -23.7758 C   0  0  0  0  0  0  0  0  0  0  0  0
  -14.6783   18.6419  -22.6599 O   0  0  0  0  0  0  0  0  0  0  0  0
  -14.1293   17.3813  -24.5216 N   0  0  0  0  0  0  0  0  0  0  0  0
  -14.2582   16.0818  -23.7364 C   0  0  0  0  0  0  0  0  0  0  0  0
  -13.3485   15.1347  -24.2787 C   0  0  0  0  0  0  0  0  0  0  0  0
  -13.6448   15.3098  -25.7067 C   0  0  2  0  0  0  0  0  0  0  0  0
  -12.6440   14.6799  -26.6026 N   0  0  0  0  0  0  0  0  0  0  0  0
  -12.1430   15.5508  -27.6592 C   0  0  0  0  0  0  0  0  0  0  0  0
  -12.2455   16.8318  -27.5975 O   0  0  0  0  0  0  0  0  0  0  0  0
  -11.3347   14.9323  -28.6756 N   0  0  0  0  0  0  0  0  0  0  0  0
  -10.8483   15.6057  -29.8345 C   0  0  0  0  0  0  0  0  0  0  0  0
  -11.4882   16.8057  -30.3331 C   0  0  0  0  0  0  0  0  0  0  0  0
  -11.2046   17.2571  -31.6159 C   0  0  0  0  0  0  0  0  0  0  0  0
  -11.8502   18.4270  -32.0488 O   0  0  0  0  0  0  0  0  0  0  0  0
  -12.2657   19.4152  -31.1156 C   0  0  0  0  0  0  0  0  0  0  0  0
  -10.2917   16.5155  -32.4064 C   0  0  0  0  0  0  0  0  0  0  0  0
   -9.5542   15.4911  -31.8713 C   0  0  0  0  0  0  0  0  0  0  0  0
   -9.8527   14.9312  -30.6383 C   0  0  0  0  0  0  0  0  0  0  0  0
   -9.0393   14.0207  -30.1455 F   0  0  0  0  0  0  0  0  0  0  0  0
  -11.1614   13.4370  -28.4822 C   0  0  0  0  0  0  0  0  0  0  0  0
  -12.4133   12.7761  -28.0288 C   0  0  0  0  0  0  0  0  0  0  0  0
  -12.9265   11.5794  -28.5433 C   0  0  0  0  0  0  0  0  0  0  0  0
  -14.1582   11.1022  -28.2003 N   0  0  0  0  0  0  0  0  0  0  0  0
  -14.9567   11.8721  -27.3352 C   0  0  0  0  0  0  0  0  0  0  0  0
  -16.2143   11.4214  -26.9388 N   0  0  0  0  0  0  0  0  0  0  0  0
  -16.7688   12.3760  -25.9955 C   0  0  0  0  0  0  0  0  0  0  0  0
  -15.9153   12.9770  -25.0329 C   0  0  0  0  0  0  0  0  0  0  0  0
  -16.4264   13.9543  -24.1631 C   0  0  0  0  0  0  0  0  0  0  0  0
  -17.7852   14.4054  -24.2327 C   0  0  0  0  0  0  0  0  0  0  0  0
  -18.2628   15.5307  -23.4265 N   0  0  0  0  0  0  0  0  0  0  0  0
  -19.4894   16.2702  -23.7899 C   0  0  0  0  0  0  0  0  0  0  0  0
  -19.2499   17.8034  -23.6949 C   0  0  0  0  0  0  0  0  0  0  0  0
  -18.3918   18.2123  -22.5515 N   0  0  0  0  0  0  0  0  0  0  0  0
  -19.0794   18.9760  -21.5168 C   0  0  0  0  0  0  0  0  0  0  0  0
  -17.3263   17.3084  -22.0190 C   0  0  0  0  0  0  0  0  0  0  0  0
  -17.7151   15.8041  -22.0853 C   0  0  0  0  0  0  0  0  0  0  0  0
  -18.6096   13.8052  -25.2345 C   0  0  0  0  0  0  0  0  0  0  0  0
  -18.1396   12.8053  -26.0919 C   0  0  0  0  0  0  0  0  0  0  0  0
  -19.0778   12.3113  -27.1435 C   0  0  0  0  0  0  0  0  0  0  0  0
  -14.4472   13.0260  -26.8240 N   0  0  0  0  0  0  0  0  0  0  0  0
  -13.1969   13.4825  -27.1463 C   0  0  0  0  0  0  0  0  0  0  0  0
  -13.9609   16.9000  -25.9064 C   0  0  0  0  0  0  0  0  0  0  0  0
  1  2  1  0
  2  3  1  0
  3  4  2  0
  5  3  1  0
  5  6  1  0
  6  7  1  0
  8  7  1  0
  8  9  1  6
  8 44  1  0
  9 10  1  0
 10 11  2  0
 10 12  1  0
 12 13  1  0
 12 22  1  0
 13 14  2  0
 14 15  1  0
 15 16  1  0
 15 18  2  0
 16 17  1  0
 18 19  1  0
 19 20  2  0
 20 21  1  0
 20 13  1  0
 22 23  1  0
 23 24  2  0
 24 25  1  0
 25 26  2  0
 26 27  1  0
 26 42  1  0
 27 28  1  0
 28 29  2  0
 29 30  1  0
 30 31  2  0
 31 32  1  0
 31 39  1  0
 32 33  1  0
 33 34  1  0
 34 35  1  0
 35 36  1  0
 35 37  1  0
 37 38  1  0
 38 32  1  0
 39 40  2  0
 40 41  1  0
 40 28  1  0
 42 43  2  0
 43  9  1  0
 43 23  1  0
 44  5  1  0
M  END
$$$$
CHEMBL4074615_plants_03
     RDKit          3D

 44 49  0  0  1  0  0  0  0  0999 V2000
  -12.3191   15.6422  -31.0165 C   0  0  0  0  0  0  0  0  0  0  0  0
  -11.4929   16.1462  -29.6806 C   0  0  0  0  0  0  0  0  0  0  0  0
  -11.5045   14.8655  -28.7525 C   0  0  0  0  0  0  0  0  0  0  0  0
  -11.0082   13.8254  -29.2650 O   0  0  0  0  0  0  0  0  0  0  0  0
  -12.4780   14.5215  -27.6183 N   0  0  0  0  0  0  0  0  0  0  0  0
  -11.5042   14.1224  -26.5163 C   0  0  0  0  0  0  0  0  0  0  0  0
  -12.2518   13.7265  -25.3749 C   0  0  0  0  0  0  0  0  0  0  0  0
  -13.2068   14.8411  -25.3168 C   0  0  2  0  0  0  0  0  0  0  0  0
  -14.3521   14.5952  -24.4064 N   0  0  0  0  0  0  0  0  0  0  0  0
  -15.3461   13.6609  -24.9212 C   0  0  0  0  0  0  0  0  0  0  0  0
  -15.0829   12.8359  -25.8727 O   0  0  0  0  0  0  0  0  0  0  0  0
  -16.5716   13.5482  -24.1768 N   0  0  0  0  0  0  0  0  0  0  0  0
  -17.6908   12.7657  -24.5870 C   0  0  0  0  0  0  0  0  0  0  0  0
  -17.5209   11.5624  -25.3750 C   0  0  0  0  0  0  0  0  0  0  0  0
  -18.6144   11.0010  -26.0222 C   0  0  0  0  0  0  0  0  0  0  0  0
  -18.3951    9.8329  -26.7708 O   0  0  0  0  0  0  0  0  0  0  0  0
  -17.6081    9.8654  -27.9539 C   0  0  0  0  0  0  0  0  0  0  0  0
  -19.8746   11.6361  -25.8934 C   0  0  0  0  0  0  0  0  0  0  0  0
  -20.0680   12.6628  -25.0057 C   0  0  0  0  0  0  0  0  0  0  0  0
  -19.0106   13.3291  -24.4049 C   0  0  0  0  0  0  0  0  0  0  0  0
  -19.2759   14.2356  -23.4875 F   0  0  0  0  0  0  0  0  0  0  0  0
  -16.6306   14.4648  -22.9686 C   0  0  0  0  0  0  0  0  0  0  0  0
  -16.0554   15.8068  -23.2477 C   0  0  0  0  0  0  0  0  0  0  0  0
  -16.6340   17.0264  -22.8761 C   0  0  0  0  0  0  0  0  0  0  0  0
  -16.1434   18.2288  -23.2956 N   0  0  0  0  0  0  0  0  0  0  0  0
  -15.0449   18.2333  -24.1743 C   0  0  0  0  0  0  0  0  0  0  0  0
  -14.4938   19.4340  -24.6174 N   0  0  0  0  0  0  0  0  0  0  0  0
  -13.5875   19.1468  -25.7149 C   0  0  0  0  0  0  0  0  0  0  0  0
  -13.8965   19.6273  -27.0148 C   0  0  0  0  0  0  0  0  0  0  0  0
  -12.9917   19.4166  -28.0682 C   0  0  0  0  0  0  0  0  0  0  0  0
  -11.7321   18.7603  -27.8752 C   0  0  0  0  0  0  0  0  0  0  0  0
  -10.7342   18.6844  -28.9443 N   0  0  0  0  0  0  0  0  0  0  0  0
  -10.8961   19.4433  -30.2017 C   0  0  0  0  0  0  0  0  0  0  0  0
  -10.5876   18.5388  -31.4280 C   0  0  0  0  0  0  0  0  0  0  0  0
   -9.4574   17.5961  -31.2156 N   0  0  0  0  0  0  0  0  0  0  0  0
   -8.2744   17.8722  -32.0222 C   0  0  0  0  0  0  0  0  0  0  0  0
   -9.1424   17.0561  -29.8572 C   0  0  0  0  0  0  0  0  0  0  0  0
   -9.4081   18.0811  -28.7182 C   0  0  0  0  0  0  0  0  0  0  0  0
  -11.4359   18.3184  -26.5484 C   0  0  0  0  0  0  0  0  0  0  0  0
  -12.3308   18.4823  -25.4864 C   0  0  0  0  0  0  0  0  0  0  0  0
  -11.8732   18.0438  -24.1342 C   0  0  0  0  0  0  0  0  0  0  0  0
  -14.4751   17.0464  -24.5192 N   0  0  0  0  0  0  0  0  0  0  0  0
  -14.9519   15.8445  -24.0679 C   0  0  0  0  0  0  0  0  0  0  0  0
  -13.5304   15.2345  -26.8689 C   0  0  0  0  0  0  0  0  0  0  0  0
  1  2  1  0
  2  3  1  0
  3  4  2  0
  5  3  1  0
  5  6  1  0
  6  7  1  0
  8  7  1  0
  8  9  1  6
  8 44  1  0
  9 10  1  0
 10 11  2  0
 10 12  1  0
 12 13  1  0
 12 22  1  0
 13 14  2  0
 14 15  1  0
 15 16  1  0
 15 18  2  0
 16 17  1  0
 18 19  1  0
 19 20  2  0
 20 21  1  0
 20 13  1  0
 22 23  1  0
 23 24  2  0
 24 25  1  0
 25 26  2  0
 26 27  1  0
 26 42  1  0
 27 28  1  0
 28 29  2  0
 29 30  1  0
 30 31  2  0
 31 32  1  0
 31 39  1  0
 32 33  1  0
 33 34  1  0
 34 35  1  0
 35 36  1  0
 35 37  1  0
 37 38  1  0
 38 32  1  0
 39 40  2  0
 40 41  1  0
 40 28  1  0
 42 43  2  0
 43  9  1  0
 43 23  1  0
 44  5  1  0
M  END
$$$$
CHEMBL4074615_plants_04
     RDKit          3D

 44 49  0  0  1  0  0  0  0  0999 V2000
   -9.4516   13.7493  -29.7827 C   0  0  0  0  0  0  0  0  0  0  0  0
  -10.8339   14.6142  -29.5327 C   0  0  0  0  0  0  0  0  0  0  0  0
  -11.7783   13.5719  -28.8093 C   0  0  0  0  0  0  0  0  0  0  0  0
  -12.1301   12.5861  -29.5129 O   0  0  0  0  0  0  0  0  0  0  0  0
  -12.7621   13.8185  -27.6587 N   0  0  0  0  0  0  0  0  0  0  0  0
  -12.3945   12.6775  -26.7180 C   0  0  0  0  0  0  0  0  0  0  0  0
  -13.2538   12.7295  -25.5879 C   0  0  0  0  0  0  0  0  0  0  0  0
  -13.1573   14.1627  -25.2805 C   0  0  2  0  0  0  0  0  0  0  0  0
  -14.1852   14.6348  -24.3207 N   0  0  0  0  0  0  0  0  0  0  0  0
  -15.5614   14.4099  -24.7468 C   0  0  0  0  0  0  0  0  0  0  0  0
  -15.8657   13.5515  -25.6555 O   0  0  0  0  0  0  0  0  0  0  0  0
  -16.5906   15.0322  -23.9578 N   0  0  0  0  0  0  0  0  0  0  0  0
  -17.9783   15.0063  -24.2846 C   0  0  0  0  0  0  0  0  0  0  0  0
  -18.5820   13.8526  -24.9190 C   0  0  0  0  0  0  0  0  0  0  0  0
  -19.8353   13.9654  -25.5074 C   0  0  0  0  0  0  0  0  0  0  0  0
  -20.3760   12.8157  -26.1062 O   0  0  0  0  0  0  0  0  0  0  0  0
  -19.5815   11.6522  -26.2935 C   0  0  0  0  0  0  0  0  0  0  0  0
  -20.4871   15.2232  -25.4724 C   0  0  0  0  0  0  0  0  0  0  0  0
  -19.9986   16.2584  -24.7179 C   0  0  0  0  0  0  0  0  0  0  0  0
  -18.7169   16.2464  -24.1888 C   0  0  0  0  0  0  0  0  0  0  0  0
  -18.3545   17.2295  -23.3913 F   0  0  0  0  0  0  0  0  0  0  0  0
  -16.0510   15.8586  -22.8050 C   0  0  0  0  0  0  0  0  0  0  0  0
  -14.8386   16.6318  -23.1818 C   0  0  0  0  0  0  0  0  0  0  0  0
  -14.6073   17.9758  -22.8648 C   0  0  0  0  0  0  0  0  0  0  0  0
  -13.5516   18.6773  -23.3706 N   0  0  0  0  0  0  0  0  0  0  0  0
  -12.6961   18.0334  -24.2829 C   0  0  0  0  0  0  0  0  0  0  0  0
  -11.5929   18.6986  -24.8142 N   0  0  0  0  0  0  0  0  0  0  0  0
  -11.4007   18.2511  -26.1822 C   0  0  0  0  0  0  0  0  0  0  0  0
  -12.5172   18.1943  -27.0576 C   0  0  0  0  0  0  0  0  0  0  0  0
  -12.3302   17.8317  -28.4016 C   0  0  0  0  0  0  0  0  0  0  0  0
  -11.0341   17.5492  -28.9447 C   0  0  0  0  0  0  0  0  0  0  0  0
  -10.8346   17.3243  -30.3779 N   0  0  0  0  0  0  0  0  0  0  0  0
  -11.9452   17.4737  -31.3409 C   0  0  0  0  0  0  0  0  0  0  0  0
  -11.9702   16.2779  -32.3342 C   0  0  0  0  0  0  0  0  0  0  0  0
  -10.6220   15.8093  -32.7513 N   0  0  0  0  0  0  0  0  0  0  0  0
  -10.3029   16.0447  -34.1546 C   0  0  0  0  0  0  0  0  0  0  0  0
   -9.4420   15.9319  -31.8410 C   0  0  0  0  0  0  0  0  0  0  0  0
   -9.4843   17.2121  -30.9589 C   0  0  0  0  0  0  0  0  0  0  0  0
   -9.9268   17.6479  -28.0460 C   0  0  0  0  0  0  0  0  0  0  0  0
  -10.0846   17.9725  -26.6949 C   0  0  0  0  0  0  0  0  0  0  0  0
   -8.8428   18.1157  -25.8777 C   0  0  0  0  0  0  0  0  0  0  0  0
  -12.9146   16.7221  -24.5749 N   0  0  0  0  0  0  0  0  0  0  0  0
  -13.9568   16.0143  -24.0378 C   0  0  0  0  0  0  0  0  0  0  0  0
  -13.0459   14.9230  -26.7220 C   0  0  0  0  0  0  0  0  0  0  0  0
  1  2  1  0
  2  3  1  0
  3  4  2  0
  5  3  1  0
  5  6  1  0
  6  7  1  0
  8  7  1  0
  8  9  1  6
  8 44  1  0
  9 10  1  0
 10 11  2  0
 10 12  1  0
 12 13  1  0
 12 22  1  0
 13 14  2  0
 14 15  1  0
 15 16  1  0
 15 18  2  0
 16 17  1  0
 18 19  1  0
 19 20  2  0
 20 21  1  0
 20 13  1  0
 22 23  1  0
 23 24  2  0
 24 25  1  0
 25 26  2  0
 26 27  1  0
 26 42  1  0
 27 28  1  0
 28 29  2  0
 29 30  1  0
 30 31  2  0
 31 32  1  0
 31 39  1  0
 32 33  1  0
 33 34  1  0
 34 35  1  0
 35 36  1  0
 35 37  1  0
 37 38  1  0
 38 32  1  0
 39 40  2  0
 40 41  1  0
 40 28  1  0
 42 43  2  0
 43  9  1  0
 43 23  1  0
 44  5  1  0
M  END
$$$$
CHEMBL4074615_plants_05
     RDKit          3D

 44 49  0  0  1  0  0  0  0  0999 V2000
  -13.7884   13.5155  -30.6647 C   0  0  0  0  0  0  0  0  0  0  0  0
  -12.9337   12.2144  -30.1191 C   0  0  0  0  0  0  0  0  0  0  0  0
  -11.9762   12.8497  -29.0321 C   0  0  0  0  0  0  0  0  0  0  0  0
  -10.8206   12.3479  -28.9741 O   0  0  0  0  0  0  0  0  0  0  0  0
  -12.3564   13.5348  -27.7135 N   0  0  0  0  0  0  0  0  0  0  0  0
  -11.5135   14.8016  -27.7956 C   0  0  0  0  0  0  0  0  0  0  0  0
  -11.7162   15.5562  -26.6091 C   0  0  0  0  0  0  0  0  0  0  0  0
  -13.1825   15.5017  -26.5392 C   0  0  2  0  0  0  0  0  0  0  0  0
  -13.7317   15.9407  -25.2329 N   0  0  0  0  0  0  0  0  0  0  0  0
  -14.8720   15.1634  -24.7624 C   0  0  0  0  0  0  0  0  0  0  0  0
  -15.1346   13.9886  -25.2165 O   0  0  0  0  0  0  0  0  0  0  0  0
  -15.5699   15.6734  -23.6128 N   0  0  0  0  0  0  0  0  0  0  0  0
  -16.7635   15.1034  -23.0803 C   0  0  0  0  0  0  0  0  0  0  0  0
  -16.9262   13.6690  -22.9623 C   0  0  0  0  0  0  0  0  0  0  0  0
  -18.1895   13.1331  -22.7456 C   0  0  0  0  0  0  0  0  0  0  0  0
  -18.2910   11.7365  -22.6360 O   0  0  0  0  0  0  0  0  0  0  0  0
  -17.2150   10.8967  -23.0323 C   0  0  0  0  0  0  0  0  0  0  0  0
  -19.2919   14.0187  -22.6525 C   0  0  0  0  0  0  0  0  0  0  0  0
  -19.1118   15.3760  -22.5823 C   0  0  0  0  0  0  0  0  0  0  0  0
  -17.8997   15.9772  -22.8860 C   0  0  0  0  0  0  0  0  0  0  0  0
  -17.7746   17.2744  -22.6980 F   0  0  0  0  0  0  0  0  0  0  0  0
  -15.0007   16.9802  -23.0915 C   0  0  0  0  0  0  0  0  0  0  0  0
  -14.6077   17.9036  -24.1881 C   0  0  0  0  0  0  0  0  0  0  0  0
  -14.8969   19.2728  -24.2332 C   0  0  0  0  0  0  0  0  0  0  0  0
  -14.6502   20.0384  -25.3356 N   0  0  0  0  0  0  0  0  0  0  0  0
  -14.1318   19.4115  -26.4831 C   0  0  0  0  0  0  0  0  0  0  0  0
  -13.8443   20.1509  -27.6288 N   0  0  0  0  0  0  0  0  0  0  0  0
  -12.7982   19.4664  -28.3675 C   0  0  0  0  0  0  0  0  0  0  0  0
  -11.9408   18.5649  -27.6833 C   0  0  0  0  0  0  0  0  0  0  0  0
  -10.9726   17.8441  -28.4016 C   0  0  0  0  0  0  0  0  0  0  0  0
  -10.8369   17.9532  -29.8244 C   0  0  0  0  0  0  0  0  0  0  0  0
   -9.9307   17.0842  -30.5781 N   0  0  0  0  0  0  0  0  0  0  0  0
  -10.1983   16.7338  -31.9884 C   0  0  0  0  0  0  0  0  0  0  0  0
   -9.9899   15.2107  -32.2207 C   0  0  0  0  0  0  0  0  0  0  0  0
   -8.8435   14.6351  -31.4686 N   0  0  0  0  0  0  0  0  0  0  0  0
   -7.7320   14.1889  -32.3005 C   0  0  0  0  0  0  0  0  0  0  0  0
   -8.4156   15.2022  -30.1528 C   0  0  0  0  0  0  0  0  0  0  0  0
   -8.5889   16.7455  -30.0699 C   0  0  0  0  0  0  0  0  0  0  0  0
  -11.7372   18.8435  -30.4880 C   0  0  0  0  0  0  0  0  0  0  0  0
  -12.6882   19.6007  -29.7968 C   0  0  0  0  0  0  0  0  0  0  0  0
  -13.6181   20.4379  -30.6121 C   0  0  0  0  0  0  0  0  0  0  0  0
  -13.8361   18.0840  -26.4292 N   0  0  0  0  0  0  0  0  0  0  0  0
  -14.0550   17.3281  -25.3084 C   0  0  0  0  0  0  0  0  0  0  0  0
  -13.6020   14.0222  -27.0902 C   0  0  0  0  0  0  0  0  0  0  0  0
  1  2  1  0
  2  3  1  0
  3  4  2  0
  5  3  1  0
  5  6  1  0
  6  7  1  0
  8  7  1  0
  8  9  1  1
  8 44  1  0
  9 10  1  0
 10 11  2  0
 10 12  1  0
 12 13  1  0
 12 22  1  0
 13 14  2  0
 14 15  1  0
 15 16  1  0
 15 18  2  0
 16 17  1  0
 18 19  1  0
 19 20  2  0
 20 21  1  0
 20 13  1  0
 22 23  1  0
 23 24  2  0
 24 25  1  0
 25 26  2  0
 26 27  1  0
 26 42  1  0
 27 28  1  0
 28 29  2  0
 29 30  1  0
 30 31  2  0
 31 32  1  0
 31 39  1  0
 32 33  1  0
 33 34  1  0
 34 35  1  0
 35 36  1  0
 35 37  1  0
 37 38  1  0
 38 32  1  0
 39 40  2  0
 40 41  1  0
 40 28  1  0
 42 43  2  0
 43  9  1  0
 43 23  1  0
 44  5  1  0
M  END
$$$$
CHEMBL4074615_plants_06
     RDKit          3D

 44 49  0  0  1  0  0  0  0  0999 V2000
   -8.6403   17.6791  -23.6032 C   0  0  0  0  0  0  0  0  0  0  0  0
   -8.1333   17.7939  -25.1688 C   0  0  0  0  0  0  0  0  0  0  0  0
   -9.4713   17.6006  -25.9898 C   0  0  0  0  0  0  0  0  0  0  0  0
   -9.3591   17.7301  -27.2393 O   0  0  0  0  0  0  0  0  0  0  0  0
  -10.9138   17.8437  -25.5286 N   0  0  0  0  0  0  0  0  0  0  0  0
  -11.5828   16.5545  -25.9893 C   0  0  0  0  0  0  0  0  0  0  0  0
  -12.9655   16.6247  -25.6707 C   0  0  0  0  0  0  0  0  0  0  0  0
  -12.8670   17.0941  -24.2823 C   0  0  2  0  0  0  0  0  0  0  0  0
  -14.1552   17.5742  -23.7247 N   0  0  0  0  0  0  0  0  0  0  0  0
  -15.1298   16.5230  -23.4582 C   0  0  0  0  0  0  0  0  0  0  0  0
  -14.7902   15.2876  -23.3402 O   0  0  0  0  0  0  0  0  0  0  0  0
  -16.4607   16.9489  -23.1173 N   0  0  0  0  0  0  0  0  0  0  0  0
  -17.5625   16.0640  -22.9269 C   0  0  0  0  0  0  0  0  0  0  0  0
  -17.3741   14.7284  -22.3990 C   0  0  0  0  0  0  0  0  0  0  0  0
  -18.3910   13.7895  -22.5179 C   0  0  0  0  0  0  0  0  0  0  0  0
  -18.1576   12.5104  -21.9865 O   0  0  0  0  0  0  0  0  0  0  0  0
  -16.9241   12.2018  -21.3513 C   0  0  0  0  0  0  0  0  0  0  0  0
  -19.5918   14.1727  -23.1655 C   0  0  0  0  0  0  0  0  0  0  0  0
  -19.8359   15.4799  -23.4991 C   0  0  0  0  0  0  0  0  0  0  0  0
  -18.8372   16.4419  -23.4969 C   0  0  0  0  0  0  0  0  0  0  0  0
  -19.1678   17.6948  -23.7301 F   0  0  0  0  0  0  0  0  0  0  0  0
  -16.6315   18.4569  -23.1208 C   0  0  0  0  0  0  0  0  0  0  0  0
  -15.9137   19.1051  -24.2495 C   0  0  0  0  0  0  0  0  0  0  0  0
  -16.4425   20.1050  -25.0747 C   0  0  0  0  0  0  0  0  0  0  0  0
  -15.7976   20.5511  -26.1917 N   0  0  0  0  0  0  0  0  0  0  0  0
  -14.5799   19.9440  -26.5484 C   0  0  0  0  0  0  0  0  0  0  0  0
  -13.8719   20.3748  -27.6686 N   0  0  0  0  0  0  0  0  0  0  0  0
  -13.2573   19.2190  -28.2970 C   0  0  0  0  0  0  0  0  0  0  0  0
  -11.9134   19.3056  -28.7469 C   0  0  0  0  0  0  0  0  0  0  0  0
  -11.2869   18.1722  -29.2907 C   0  0  0  0  0  0  0  0  0  0  0  0
  -11.9449   16.9016  -29.3767 C   0  0  0  0  0  0  0  0  0  0  0  0
  -11.2319   15.6950  -29.8012 N   0  0  0  0  0  0  0  0  0  0  0  0
  -11.6230   14.3581  -29.3083 C   0  0  0  0  0  0  0  0  0  0  0  0
  -10.3686   13.5483  -28.8750 C   0  0  0  0  0  0  0  0  0  0  0  0
   -9.1849   13.7505  -29.7520 N   0  0  0  0  0  0  0  0  0  0  0  0
   -8.7935   12.5785  -30.5264 C   0  0  0  0  0  0  0  0  0  0  0  0
   -8.9634   15.0432  -30.4704 C   0  0  0  0  0  0  0  0  0  0  0  0
  -10.2866   15.7172  -30.9324 C   0  0  0  0  0  0  0  0  0  0  0  0
  -13.2855   16.8390  -28.8845 C   0  0  0  0  0  0  0  0  0  0  0  0
  -13.9480   17.9578  -28.3697 C   0  0  0  0  0  0  0  0  0  0  0  0
  -15.3202   17.7455  -27.8199 C   0  0  0  0  0  0  0  0  0  0  0  0
  -14.0611   18.9846  -25.7342 N   0  0  0  0  0  0  0  0  0  0  0  0
  -14.6974   18.5648  -24.5964 C   0  0  0  0  0  0  0  0  0  0  0  0
  -11.5875   18.1090  -24.2429 C   0  0  0  0  0  0  0  0  0  0  0  0
  1  2  1  0
  2  3  1  0
  3  4  2  0
  5  3  1  0
  5  6  1  0
  6  7  1  0
  8  7  1  0
  8  9  1  6
  8 44  1  0
  9 10  1  0
 10 11  2  0
 10 12  1  0
 12 13  1  0
 12 22  1  0
 13 14  2  0
 14 15  1  0
 15 16  1  0
 15 18  2  0
 16 17  1  0
 18 19  1  0
 19 20  2  0
 20 21  1  0
 20 13  1  0
 22 23  1  0
 23 24  2  0
 24 25  1  0
 25 26  2  0
 26 27  1  0
 26 42  1  0
 27 28  1  0
 28 29  2  0
 29 30  1  0
 30 31  2  0
 31 32  1  0
 31 39  1  0
 32 33  1  0
 33 34  1  0
 34 35  1  0
 35 36  1  0
 35 37  1  0
 37 38  1  0
 38 32  1  0
 39 40  2  0
 40 41  1  0
 40 28  1  0
 42 43  2  0
 43  9  1  0
 43 23  1  0
 44  5  1  0
M  END
$$$$
CHEMBL4074615_plants_07
     RDKit          3D

 44 49  0  0  1  0  0  0  0  0999 V2000
  -15.4575   17.5001  -23.1250 C   0  0  0  0  0  0  0  0  0  0  0  0
  -16.6695   16.3843  -23.2100 C   0  0  0  0  0  0  0  0  0  0  0  0
  -15.8843   15.0150  -23.3099 C   0  0  0  0  0  0  0  0  0  0  0  0
  -15.8196   14.3526  -22.2386 O   0  0  0  0  0  0  0  0  0  0  0  0
  -14.7515   14.6361  -24.2721 N   0  0  0  0  0  0  0  0  0  0  0  0
  -15.2393   13.2807  -24.7691 C   0  0  0  0  0  0  0  0  0  0  0  0
  -14.2695   12.7519  -25.6626 C   0  0  0  0  0  0  0  0  0  0  0  0
  -14.0377   13.9405  -26.4940 C   0  0  2  0  0  0  0  0  0  0  0  0
  -12.8368   13.8356  -27.3586 N   0  0  0  0  0  0  0  0  0  0  0  0
  -12.3034   15.1142  -27.8133 C   0  0  0  0  0  0  0  0  0  0  0  0
  -12.5862   16.2228  -27.2247 O   0  0  0  0  0  0  0  0  0  0  0  0
  -11.2742   15.0635  -28.8168 N   0  0  0  0  0  0  0  0  0  0  0  0
  -10.7131   16.2114  -29.4497 C   0  0  0  0  0  0  0  0  0  0  0  0
  -11.4235   17.4730  -29.4894 C   0  0  0  0  0  0  0  0  0  0  0  0
  -11.0133   18.4688  -30.3669 C   0  0  0  0  0  0  0  0  0  0  0  0
  -11.7351   19.6737  -30.3631 O   0  0  0  0  0  0  0  0  0  0  0  0
  -12.8188   19.8684  -29.4644 C   0  0  0  0  0  0  0  0  0  0  0  0
   -9.9031   18.2114  -31.2092 C   0  0  0  0  0  0  0  0  0  0  0  0
   -9.1255   17.0947  -31.0422 C   0  0  0  0  0  0  0  0  0  0  0  0
   -9.5286   16.0240  -30.2586 C   0  0  0  0  0  0  0  0  0  0  0  0
   -8.6853   15.0316  -30.0646 F   0  0  0  0  0  0  0  0  0  0  0  0
  -10.9319   13.6528  -29.2598 C   0  0  0  0  0  0  0  0  0  0  0  0
  -12.1373   12.7931  -29.3923 C   0  0  0  0  0  0  0  0  0  0  0  0
  -12.4002   11.9309  -30.4636 C   0  0  0  0  0  0  0  0  0  0  0  0
  -13.5938   11.2857  -30.6098 N   0  0  0  0  0  0  0  0  0  0  0  0
  -14.6109   11.5399  -29.6720 C   0  0  0  0  0  0  0  0  0  0  0  0
  -15.8416   10.8929  -29.7648 N   0  0  0  0  0  0  0  0  0  0  0  0
  -16.4588   10.8876  -28.4504 C   0  0  0  0  0  0  0  0  0  0  0  0
  -15.6908   10.4901  -27.3242 C   0  0  0  0  0  0  0  0  0  0  0  0
  -16.2563   10.5498  -26.0399 C   0  0  0  0  0  0  0  0  0  0  0  0
  -17.5840   11.0390  -25.8104 C   0  0  0  0  0  0  0  0  0  0  0  0
  -18.1046   11.2409  -24.4566 N   0  0  0  0  0  0  0  0  0  0  0  0
  -19.3999   11.9126  -24.2239 C   0  0  0  0  0  0  0  0  0  0  0  0
  -19.2723   12.9632  -23.0849 C   0  0  0  0  0  0  0  0  0  0  0  0
  -18.3918   12.5376  -21.9648 N   0  0  0  0  0  0  0  0  0  0  0  0
  -19.0829   12.3039  -20.7021 C   0  0  0  0  0  0  0  0  0  0  0  0
  -17.2361   11.6167  -22.1933 C   0  0  0  0  0  0  0  0  0  0  0  0
  -17.5132   10.5537  -23.2941 C   0  0  0  0  0  0  0  0  0  0  0  0
  -18.3189   11.4631  -26.9609 C   0  0  0  0  0  0  0  0  0  0  0  0
  -17.7964   11.3833  -28.2556 C   0  0  0  0  0  0  0  0  0  0  0  0
  -18.6355   11.9264  -29.3651 C   0  0  0  0  0  0  0  0  0  0  0  0
  -14.3454   12.3653  -28.6229 N   0  0  0  0  0  0  0  0  0  0  0  0
  -13.1339   12.9838  -28.4637 C   0  0  0  0  0  0  0  0  0  0  0  0
  -14.1482   15.2206  -25.4853 C   0  0  0  0  0  0  0  0  0  0  0  0
  1  2  1  0
  2  3  1  0
  3  4  2  0
  5  3  1  0
  5  6  1  0
  6  7  1  0
  8  7  1  0
  8  9  1  1
  8 44  1  0
  9 10  1  0
 10 11  2  0
 10 12  1  0
 12 13  1  0
 12 22  1  0
 13 14  2  0
 14 15  1  0
 15 16  1  0
 15 18  2  0
 16 17  1  0
 18 19  1  0
 19 20  2  0
 20 21  1  0
 20 13  1  0
 22 23  1  0
 23 24  2  0
 24 25  1  0
 25 26  2  0
 26 27  1  0
 26 42  1  0
 27 28  1  0
 28 29  2  0
 29 30  1  0
 30 31  2  0
 31 32  1  0
 31 39  1  0
 32 33  1  0
 33 34  1  0
 34 35  1  0
 35 36  1  0
 35 37  1  0
 37 38  1  0
 38 32  1  0
 39 40  2  0
 40 41  1  0
 40 28  1  0
 42 43  2  0
 43  9  1  0
 43 23  1  0
 44  5  1  0
M  END
$$$$
CHEMBL4074615_plants_08
     RDKit          3D

 44 49  0  0  1  0  0  0  0  0999 V2000
  -14.2052   19.9966  -28.2124 C   0  0  0  0  0  0  0  0  0  0  0  0
  -14.1881   19.2161  -26.7592 C   0  0  0  0  0  0  0  0  0  0  0  0
  -13.3108   17.9340  -27.0557 C   0  0  0  0  0  0  0  0  0  0  0  0
  -12.4602   18.0657  -27.9777 O   0  0  0  0  0  0  0  0  0  0  0  0
  -13.6753   16.4604  -26.8362 N   0  0  0  0  0  0  0  0  0  0  0  0
  -12.4276   15.9606  -26.1184 C   0  0  0  0  0  0  0  0  0  0  0  0
  -12.5783   14.5707  -25.8658 C   0  0  0  0  0  0  0  0  0  0  0  0
  -13.9419   14.5740  -25.3194 C   0  0  2  0  0  0  0  0  0  0  0  0
  -14.5477   13.2230  -25.2262 N   0  0  0  0  0  0  0  0  0  0  0  0
  -14.7873   12.5760  -26.5107 C   0  0  0  0  0  0  0  0  0  0  0  0
  -14.1884   12.9473  -27.5872 O   0  0  0  0  0  0  0  0  0  0  0  0
  -15.5598   11.3629  -26.4877 N   0  0  0  0  0  0  0  0  0  0  0  0
  -15.9775   10.6551  -27.6529 C   0  0  0  0  0  0  0  0  0  0  0  0
  -15.2376   10.7446  -28.8948 C   0  0  0  0  0  0  0  0  0  0  0  0
  -15.8225   10.3149  -30.0793 C   0  0  0  0  0  0  0  0  0  0  0  0
  -15.0605   10.4213  -31.2544 O   0  0  0  0  0  0  0  0  0  0  0  0
  -14.2735   11.5774  -31.5076 C   0  0  0  0  0  0  0  0  0  0  0  0
  -17.1430    9.8027  -30.0334 C   0  0  0  0  0  0  0  0  0  0  0  0
  -17.7688    9.5510  -28.8398 C   0  0  0  0  0  0  0  0  0  0  0  0
  -17.2865   10.0399  -27.6351 C   0  0  0  0  0  0  0  0  0  0  0  0
  -17.8839    9.6724  -26.5208 F   0  0  0  0  0  0  0  0  0  0  0  0
  -16.0269   10.9710  -25.0979 C   0  0  0  0  0  0  0  0  0  0  0  0
  -16.4668   12.1434  -24.2970 C   0  0  0  0  0  0  0  0  0  0  0  0
  -17.6302   12.1998  -23.5201 C   0  0  0  0  0  0  0  0  0  0  0  0
  -18.0651   13.3528  -22.9335 N   0  0  0  0  0  0  0  0  0  0  0  0
  -17.3391   14.5354  -23.1635 C   0  0  0  0  0  0  0  0  0  0  0  0
  -17.7296   15.7356  -22.5729 N   0  0  0  0  0  0  0  0  0  0  0  0
  -16.8112   16.7773  -22.9972 C   0  0  0  0  0  0  0  0  0  0  0  0
  -17.3152   17.9037  -23.6997 C   0  0  0  0  0  0  0  0  0  0  0  0
  -16.4470   18.9503  -24.0514 C   0  0  0  0  0  0  0  0  0  0  0  0
  -15.0594   18.9470  -23.6919 C   0  0  0  0  0  0  0  0  0  0  0  0
  -14.2023   20.1105  -23.9284 N   0  0  0  0  0  0  0  0  0  0  0  0
  -14.6960   21.2908  -24.6675 C   0  0  0  0  0  0  0  0  0  0  0  0
  -13.6470   21.7551  -25.7168 C   0  0  0  0  0  0  0  0  0  0  0  0
  -12.2383   21.6472  -25.2530 N   0  0  0  0  0  0  0  0  0  0  0  0
  -11.5604   22.9243  -25.0628 C   0  0  0  0  0  0  0  0  0  0  0  0
  -11.8226   20.5977  -24.2723 C   0  0  0  0  0  0  0  0  0  0  0  0
  -12.9213   20.2800  -23.2185 C   0  0  0  0  0  0  0  0  0  0  0  0
  -14.5904   17.8148  -22.9558 C   0  0  0  0  0  0  0  0  0  0  0  0
  -15.4219   16.7414  -22.6212 C   0  0  0  0  0  0  0  0  0  0  0  0
  -14.8297   15.6533  -21.7871 C   0  0  0  0  0  0  0  0  0  0  0  0
  -16.1995   14.4727  -23.9050 N   0  0  0  0  0  0  0  0  0  0  0  0
  -15.7503   13.3057  -24.4633 C   0  0  0  0  0  0  0  0  0  0  0  0
  -14.7534   15.7238  -26.1486 C   0  0  0  0  0  0  0  0  0  0  0  0
  1  2  1  0
  2  3  1  0
  3  4  2  0
  5  3  1  0
  5  6  1  0
  6  7  1  0
  8  7  1  0
  8  9  1  6
  8 44  1  0
  9 10  1  0
 10 11  2  0
 10 12  1  0
 12 13  1  0
 12 22  1  0
 13 14  2  0
 14 15  1  0
 15 16  1  0
 15 18  2  0
 16 17  1  0
 18 19  1  0
 19 20  2  0
 20 21  1  0
 20 13  1  0
 22 23  1  0
 23 24  2  0
 24 25  1  0
 25 26  2  0
 26 27  1  0
 26 42  1  0
 27 28  1  0
 28 29  2  0
 29 30  1  0
 30 31  2  0
 31 32  1  0
 31 39  1  0
 32 33  1  0
 33 34  1  0
 34 35  1  0
 35 36  1  0
 35 37  1  0
 37 38  1  0
 38 32  1  0
 39 40  2  0
 40 41  1  0
 40 28  1  0
 42 43  2  0
 43  9  1  0
 43 23  1  0
 44  5  1  0
M  END
$$$$
CHEMBL4074615_plants_09
     RDKit          3D

 44 49  0  0  1  0  0  0  0  0999 V2000
   -9.5352   18.9138  -30.0473 C   0  0  0  0  0  0  0  0  0  0  0  0
   -9.4664   17.3319  -29.5845 C   0  0  0  0  0  0  0  0  0  0  0  0
  -10.8367   16.7473  -30.1156 C   0  0  0  0  0  0  0  0  0  0  0  0
  -10.9577   16.7157  -31.3706 O   0  0  0  0  0  0  0  0  0  0  0  0
  -12.2041   16.7481  -29.4208 N   0  0  0  0  0  0  0  0  0  0  0  0
  -12.6221   15.2950  -29.6097 C   0  0  0  0  0  0  0  0  0  0  0  0
  -13.9149   15.1203  -29.0471 C   0  0  0  0  0  0  0  0  0  0  0  0
  -13.7077   15.7953  -27.7590 C   0  0  2  0  0  0  0  0  0  0  0  0
  -14.9664   16.0713  -27.0238 N   0  0  0  0  0  0  0  0  0  0  0  0
  -14.8063   16.9072  -25.8399 C   0  0  0  0  0  0  0  0  0  0  0  0
  -13.7724   17.6520  -25.6618 O   0  0  0  0  0  0  0  0  0  0  0  0
  -15.9515   17.0317  -24.9787 N   0  0  0  0  0  0  0  0  0  0  0  0
  -15.9458   17.7205  -23.7302 C   0  0  0  0  0  0  0  0  0  0  0  0
  -14.8160   18.5291  -23.3207 C   0  0  0  0  0  0  0  0  0  0  0  0
  -14.6947   18.9242  -21.9945 C   0  0  0  0  0  0  0  0  0  0  0  0
  -13.5818   19.7095  -21.6513 O   0  0  0  0  0  0  0  0  0  0  0  0
  -12.5897   20.0254  -22.6188 C   0  0  0  0  0  0  0  0  0  0  0  0
  -15.6897   18.5124  -21.0733 C   0  0  0  0  0  0  0  0  0  0  0  0
  -16.8446   17.9060  -21.4954 C   0  0  0  0  0  0  0  0  0  0  0  0
  -16.9873   17.4006  -22.7788 C   0  0  0  0  0  0  0  0  0  0  0  0
  -18.1596   16.9236  -23.1420 F   0  0  0  0  0  0  0  0  0  0  0  0
  -17.1506   16.2289  -25.4489 C   0  0  0  0  0  0  0  0  0  0  0  0
  -16.7657   14.8949  -25.9796 C   0  0  0  0  0  0  0  0  0  0  0  0
  -17.4117   13.6895  -25.6794 C   0  0  0  0  0  0  0  0  0  0  0  0
  -16.9200   12.4773  -26.0685 N   0  0  0  0  0  0  0  0  0  0  0  0
  -15.6919   12.4422  -26.7535 C   0  0  0  0  0  0  0  0  0  0  0  0
  -15.1553   11.2324  -27.1895 N   0  0  0  0  0  0  0  0  0  0  0  0
  -13.9352   11.5093  -27.9265 C   0  0  0  0  0  0  0  0  0  0  0  0
  -13.9276   11.3595  -29.3385 C   0  0  0  0  0  0  0  0  0  0  0  0
  -12.7746   11.6934  -30.0678 C   0  0  0  0  0  0  0  0  0  0  0  0
  -11.5996   12.2237  -29.4410 C   0  0  0  0  0  0  0  0  0  0  0  0
  -10.4640   12.7113  -30.2266 N   0  0  0  0  0  0  0  0  0  0  0  0
   -9.1247   12.8712  -29.6233 C   0  0  0  0  0  0  0  0  0  0  0  0
   -8.5049   14.2388  -30.0266 C   0  0  0  0  0  0  0  0  0  0  0  0
   -8.7922   14.6437  -31.4283 N   0  0  0  0  0  0  0  0  0  0  0  0
   -7.6283   14.6646  -32.3067 C   0  0  0  0  0  0  0  0  0  0  0  0
  -10.0520   14.2223  -32.1148 C   0  0  0  0  0  0  0  0  0  0  0  0
  -10.5271   12.8017  -31.6967 C   0  0  0  0  0  0  0  0  0  0  0  0
  -11.6510   12.3943  -28.0226 C   0  0  0  0  0  0  0  0  0  0  0  0
  -12.7712   12.0386  -27.2649 C   0  0  0  0  0  0  0  0  0  0  0  0
  -12.7276   12.3344  -25.8017 C   0  0  0  0  0  0  0  0  0  0  0  0
  -15.0761   13.6171  -27.0583 N   0  0  0  0  0  0  0  0  0  0  0  0
  -15.5920   14.8323  -26.6939 C   0  0  0  0  0  0  0  0  0  0  0  0
  -12.7075   17.0496  -28.0668 C   0  0  0  0  0  0  0  0  0  0  0  0
  1  2  1  0
  2  3  1  0
  3  4  2  0
  5  3  1  0
  5  6  1  0
  6  7  1  0
  8  7  1  0
  8  9  1  6
  8 44  1  0
  9 10  1  0
 10 11  2  0
 10 12  1  0
 12 13  1  0
 12 22  1  0
 13 14  2  0
 14 15  1  0
 15 16  1  0
 15 18  2  0
 16 17  1  0
 18 19  1  0
 19 20  2  0
 20 21  1  0
 20 13  1  0
 22 23  1  0
 23 24  2  0
 24 25  1  0
 25 26  2  0
 26 27  1  0
 26 42  1  0
 27 28  1  0
 28 29  2  0
 29 30  1  0
 30 31  2  0
 31 32  1  0
 31 39  1  0
 32 33  1  0
 33 34  1  0
 34 35  1  0
 35 36  1  0
 35 37  1  0
 37 38  1  0
 38 32  1  0
 39 40  2  0
 40 41  1  0
 40 28  1  0
 42 43  2  0
 43  9  1  0
 43 23  1  0
 44  5  1  0
M  END
$$$$
CHEMBL4074615_plants_10
     RDKit          3D

 44 49  0  0  1  0  0  0  0  0999 V2000
  -13.6849   20.0124  -21.9516 C   0  0  0  0  0  0  0  0  0  0  0  0
  -12.1848   19.4752  -22.3786 C   0  0  0  0  0  0  0  0  0  0  0  0
  -12.5005   18.3623  -23.4573 C   0  0  0  0  0  0  0  0  0  0  0  0
  -11.9116   18.5033  -24.5637 O   0  0  0  0  0  0  0  0  0  0  0  0
  -13.7671   17.5095  -23.6015 N   0  0  0  0  0  0  0  0  0  0  0  0
  -13.1608   16.1203  -23.7573 C   0  0  0  0  0  0  0  0  0  0  0  0
  -14.2147   15.1863  -23.9453 C   0  0  0  0  0  0  0  0  0  0  0  0
  -15.1112   15.6173  -22.8644 C   0  0  2  0  0  0  0  0  0  0  0  0
  -16.4756   15.0425  -22.9596 N   0  0  0  0  0  0  0  0  0  0  0  0
  -16.5310   13.7048  -23.5371 C   0  0  0  0  0  0  0  0  0  0  0  0
  -15.4978   12.9404  -23.5956 O   0  0  0  0  0  0  0  0  0  0  0  0
  -17.8380   13.1887  -23.8443 N   0  0  0  0  0  0  0  0  0  0  0  0
  -18.0759   11.9479  -24.5052 C   0  0  0  0  0  0  0  0  0  0  0  0
  -17.1376   10.8489  -24.4059 C   0  0  0  0  0  0  0  0  0  0  0  0
  -17.2246    9.7846  -25.2944 C   0  0  0  0  0  0  0  0  0  0  0  0
  -16.2921    8.7438  -25.1524 O   0  0  0  0  0  0  0  0  0  0  0  0
  -14.9028    8.9838  -25.3323 C   0  0  0  0  0  0  0  0  0  0  0  0
  -18.2375    9.8129  -26.2851 C   0  0  0  0  0  0  0  0  0  0  0  0
  -19.2306   10.7578  -26.2622 C   0  0  0  0  0  0  0  0  0  0  0  0
  -19.1521   11.8933  -25.4703 C   0  0  0  0  0  0  0  0  0  0  0  0
  -20.1889   12.7037  -25.4250 F   0  0  0  0  0  0  0  0  0  0  0  0
  -18.9601   14.1616  -23.5315 C   0  0  0  0  0  0  0  0  0  0  0  0
  -18.6134   15.5609  -23.8939 C   0  0  0  0  0  0  0  0  0  0  0  0
  -19.4556   16.4522  -24.5694 C   0  0  0  0  0  0  0  0  0  0  0  0
  -19.0290   17.6697  -25.0147 N   0  0  0  0  0  0  0  0  0  0  0  0
  -17.6781   18.0144  -24.8282 C   0  0  0  0  0  0  0  0  0  0  0  0
  -17.1959   19.2528  -25.2471 N   0  0  0  0  0  0  0  0  0  0  0  0
  -15.8840   19.0594  -25.8388 C   0  0  0  0  0  0  0  0  0  0  0  0
  -15.6651   17.9478  -26.6948 C   0  0  0  0  0  0  0  0  0  0  0  0
  -14.4215   17.7915  -27.3286 C   0  0  0  0  0  0  0  0  0  0  0  0
  -13.3598   18.7424  -27.1757 C   0  0  0  0  0  0  0  0  0  0  0  0
  -12.1272   18.6498  -27.9608 N   0  0  0  0  0  0  0  0  0  0  0  0
  -11.9332   19.4555  -29.1841 C   0  0  0  0  0  0  0  0  0  0  0  0
  -11.3609   18.5758  -30.3312 C   0  0  0  0  0  0  0  0  0  0  0  0
  -10.3616   17.5705  -29.8820 N   0  0  0  0  0  0  0  0  0  0  0  0
   -9.0021   17.8115  -30.3514 C   0  0  0  0  0  0  0  0  0  0  0  0
  -10.4243   16.9724  -28.5129 C   0  0  0  0  0  0  0  0  0  0  0  0
  -10.9280   17.9730  -27.4341 C   0  0  0  0  0  0  0  0  0  0  0  0
  -13.6232   19.8678  -26.3344 C   0  0  0  0  0  0  0  0  0  0  0  0
  -14.8383   20.0333  -25.6623 C   0  0  0  0  0  0  0  0  0  0  0  0
  -15.0162   21.2881  -24.8724 C   0  0  0  0  0  0  0  0  0  0  0  0
  -16.8672   17.1524  -24.1559 N   0  0  0  0  0  0  0  0  0  0  0  0
  -17.3101   15.9461  -23.6822 C   0  0  0  0  0  0  0  0  0  0  0  0
  -14.9666   17.2425  -22.7845 C   0  0  0  0  0  0  0  0  0  0  0  0
  1  2  1  0
  2  3  1  0
  3  4  2  0
  5  3  1  0
  5  6  1  0
  6  7  1  0
  8  7  1  0
  8  9  1  6
  8 44  1  0
  9 10  1  0
 10 11  2  0
 10 12  1  0
 12 13  1  0
 12 22  1  0
 13 14  2  0
 14 15  1  0
 15 16  1  0
 15 18  2  0
 16 17  1  0
 18 19  1  0
 19 20  2  0
 20 21  1  0
 20 13  1  0
 22 23  1  0
 23 24  2  0
 24 25  1  0
 25 26  2  0
 26 27  1  0
 26 42  1  0
 27 28  1  0
 28 29  2  0
 29 30  1  0
 30 31  2  0
 31 32  1  0
 31 39  1  0
 32 33  1  0
 33 34  1  0
 34 35  1  0
 35 36  1  0
 35 37  1  0
 37 38  1  0
 38 32  1  0
 39 40  2  0
 40 41  1  0
 40 28  1  0
 42 43  2  0
 43  9  1  0
 43 23  1  0
 44  5  1  0
M  END
$$$$
CHEMBL255871_plants_01
     RDKit          3D

 29 32  0  0  0  0  0  0  0  0999 V2000
  -16.2932   13.8387  -22.7777 C   0  0  0  0  0  0  0  0  0  0  0  0
  -16.7707   15.1796  -22.8512 O   0  0  0  0  0  0  0  0  0  0  0  0
  -16.4471   16.0571  -23.8745 N   0  0  0  0  0  0  0  0  0  0  0  0
  -16.5391   17.3513  -23.7977 C   0  0  0  0  0  0  0  0  0  0  0  0
  -16.0445   18.2062  -24.8987 C   0  0  0  0  0  0  0  0  0  0  0  0
  -16.1900   19.6138  -24.8793 C   0  0  0  0  0  0  0  0  0  0  0  0
  -16.7820   20.3029  -23.7722 N   0  0  0  0  0  0  0  0  0  0  0  0
  -15.7011   20.3512  -25.9107 N   0  0  0  0  0  0  0  0  0  0  0  0
  -15.0583   19.7741  -26.9544 C   0  0  0  0  0  0  0  0  0  0  0  0
  -14.8910   18.4303  -26.9893 N   0  0  0  0  0  0  0  0  0  0  0  0
  -15.3762   17.6285  -26.0065 C   0  0  0  0  0  0  0  0  0  0  0  0
  -15.1775   16.2097  -26.1243 N   0  0  0  0  0  0  0  0  0  0  0  0
  -14.1958   15.6066  -26.9827 C   0  0  0  0  0  0  0  0  0  0  0  0
  -13.1070   16.3870  -27.4467 C   0  0  0  0  0  0  0  0  0  0  0  0
  -12.0766   15.8047  -28.2073 C   0  0  0  0  0  0  0  0  0  0  0  0
  -12.1792   14.4454  -28.5039 C   0  0  0  0  0  0  0  0  0  0  0  0
  -13.2471   13.7012  -28.0955 C   0  0  0  0  0  0  0  0  0  0  0  0
  -12.9933   12.4159  -28.5216 C   0  0  0  0  0  0  0  0  0  0  0  0
  -11.7936   12.4063  -29.1508 N   0  0  0  0  0  0  0  0  0  0  0  0
  -11.3081   13.6441  -29.1470 N   0  0  0  0  0  0  0  0  0  0  0  0
   -9.9633   13.9851  -29.6046 C   0  0  0  0  0  0  0  0  0  0  0  0
   -9.9860   15.3182  -30.3033 C   0  0  0  0  0  0  0  0  0  0  0  0
  -10.5425   15.4453  -31.5872 C   0  0  0  0  0  0  0  0  0  0  0  0
  -10.6042   16.6970  -32.2071 C   0  0  0  0  0  0  0  0  0  0  0  0
  -10.1140   17.8292  -31.5511 C   0  0  0  0  0  0  0  0  0  0  0  0
   -9.5619   17.7121  -30.2724 C   0  0  0  0  0  0  0  0  0  0  0  0
   -9.0931   18.8122  -29.6336 F   0  0  0  0  0  0  0  0  0  0  0  0
   -9.4997   16.4619  -29.6484 C   0  0  0  0  0  0  0  0  0  0  0  0
  -14.2815   14.2392  -27.3385 C   0  0  0  0  0  0  0  0  0  0  0  0
  1  2  1  0
  2  3  1  0
  3  4  2  0
  4  5  1  0
  5  6  2  0
  6  7  1  0
  6  8  1  0
  8  9  2  0
  9 10  1  0
 10 11  2  0
 11 12  1  0
 11  5  1  0
 12 13  1  0
 13 14  2  0
 14 15  1  0
 15 16  2  0
 16 17  1  0
 17 18  1  0
 17 29  2  0
 18 19  2  0
 19 20  1  0
 20 21  1  0
 20 16  1  0
 21 22  1  0
 22 23  2  0
 23 24  1  0
 24 25  2  0
 25 26  1  0
 26 27  1  0
 26 28  2  0
 28 22  1  0
 29 13  1  0
M  END
$$$$
CHEMBL255871_plants_02
     RDKit          3D

 29 32  0  0  0  0  0  0  0  0999 V2000
  -14.9659   20.8929  -25.7377 C   0  0  0  0  0  0  0  0  0  0  0  0
  -16.0294   20.1227  -25.1834 O   0  0  0  0  0  0  0  0  0  0  0  0
  -15.8976   18.8005  -24.7881 N   0  0  0  0  0  0  0  0  0  0  0  0
  -16.8037   18.1251  -24.1462 C   0  0  0  0  0  0  0  0  0  0  0  0
  -16.6201   16.6807  -23.8858 C   0  0  0  0  0  0  0  0  0  0  0  0
  -17.5002   15.9507  -23.0519 C   0  0  0  0  0  0  0  0  0  0  0  0
  -18.6499   16.5526  -22.4462 N   0  0  0  0  0  0  0  0  0  0  0  0
  -17.2929   14.6213  -22.8615 N   0  0  0  0  0  0  0  0  0  0  0  0
  -16.2717   13.9680  -23.4662 C   0  0  0  0  0  0  0  0  0  0  0  0
  -15.4248   14.6398  -24.2824 N   0  0  0  0  0  0  0  0  0  0  0  0
  -15.5556   15.9743  -24.4983 C   0  0  0  0  0  0  0  0  0  0  0  0
  -14.6052   16.6214  -25.3610 N   0  0  0  0  0  0  0  0  0  0  0  0
  -13.8279   15.9345  -26.3551 C   0  0  0  0  0  0  0  0  0  0  0  0
  -12.7478   16.6085  -26.9787 C   0  0  0  0  0  0  0  0  0  0  0  0
  -11.9059   15.9362  -27.8834 C   0  0  0  0  0  0  0  0  0  0  0  0
  -12.1873   14.5977  -28.1581 C   0  0  0  0  0  0  0  0  0  0  0  0
  -13.2515   13.9583  -27.5926 C   0  0  0  0  0  0  0  0  0  0  0  0
  -13.1943   12.6596  -28.0488 C   0  0  0  0  0  0  0  0  0  0  0  0
  -12.1088   12.5387  -28.8504 N   0  0  0  0  0  0  0  0  0  0  0  0
  -11.5067   13.7219  -28.9223 N   0  0  0  0  0  0  0  0  0  0  0  0
  -10.2178   13.9332  -29.5768 C   0  0  0  0  0  0  0  0  0  0  0  0
  -10.2377   15.2349  -30.3324 C   0  0  0  0  0  0  0  0  0  0  0  0
  -10.9131   15.3409  -31.5600 C   0  0  0  0  0  0  0  0  0  0  0  0
  -10.9683   16.5671  -32.2295 C   0  0  0  0  0  0  0  0  0  0  0  0
  -10.3532   17.6947  -31.6794 C   0  0  0  0  0  0  0  0  0  0  0  0
   -9.6822   17.5986  -30.4570 C   0  0  0  0  0  0  0  0  0  0  0  0
   -9.0918   18.6948  -29.9204 F   0  0  0  0  0  0  0  0  0  0  0  0
   -9.6260   16.3742  -29.7835 C   0  0  0  0  0  0  0  0  0  0  0  0
  -14.1024   14.5869  -26.6907 C   0  0  0  0  0  0  0  0  0  0  0  0
  1  2  1  0
  2  3  1  0
  3  4  2  0
  4  5  1  0
  5  6  2  0
  6  7  1  0
  6  8  1  0
  8  9  2  0
  9 10  1  0
 10 11  2  0
 11 12  1  0
 11  5  1  0
 12 13  1  0
 13 14  2  0
 14 15  1  0
 15 16  2  0
 16 17  1  0
 17 18  1  0
 17 29  2  0
 18 19  2  0
 19 20  1  0
 20 21  1  0
 20 16  1  0
 21 22  1  0
 22 23  2  0
 23 24  1  0
 24 25  2  0
 25 26  1  0
 26 27  1  0
 26 28  2  0
 28 22  1  0
 29 13  1  0
M  END
$$$$
CHEMBL255871_plants_03
     RDKit          3D

 29 32  0  0  0  0  0  0  0  0999 V2000
  -16.2939   12.2934  -21.3468 C   0  0  0  0  0  0  0  0  0  0  0  0
  -16.9111   12.7575  -22.5448 O   0  0  0  0  0  0  0  0  0  0  0  0
  -16.5374   13.9186  -23.2035 N   0  0  0  0  0  0  0  0  0  0  0  0
  -16.8562   15.1205  -22.8254 C   0  0  0  0  0  0  0  0  0  0  0  0
  -16.2979   16.3000  -23.5217 C   0  0  0  0  0  0  0  0  0  0  0  0
  -16.5678   17.6216  -23.0936 C   0  0  0  0  0  0  0  0  0  0  0  0
  -17.3589   17.8993  -21.9325 N   0  0  0  0  0  0  0  0  0  0  0  0
  -16.0141   18.6675  -23.7615 N   0  0  0  0  0  0  0  0  0  0  0  0
  -15.1911   18.4780  -24.8209 C   0  0  0  0  0  0  0  0  0  0  0  0
  -14.9031   17.2228  -25.2407 N   0  0  0  0  0  0  0  0  0  0  0  0
  -15.4412   16.1313  -24.6376 C   0  0  0  0  0  0  0  0  0  0  0  0
  -15.1048   14.8325  -25.1535 N   0  0  0  0  0  0  0  0  0  0  0  0
  -14.1186   14.6063  -26.1735 C   0  0  0  0  0  0  0  0  0  0  0  0
  -13.0091   15.4832  -26.2723 C   0  0  0  0  0  0  0  0  0  0  0  0
  -11.9755   15.2354  -27.1940 C   0  0  0  0  0  0  0  0  0  0  0  0
  -12.0956   14.1147  -28.0162 C   0  0  0  0  0  0  0  0  0  0  0  0
  -13.1827   13.2928  -27.9534 C   0  0  0  0  0  0  0  0  0  0  0  0
  -12.9431   12.2843  -28.8608 C   0  0  0  0  0  0  0  0  0  0  0  0
  -11.7330   12.5032  -29.4292 N   0  0  0  0  0  0  0  0  0  0  0  0
  -11.2271   13.6227  -28.9206 N   0  0  0  0  0  0  0  0  0  0  0  0
   -9.8691   14.0896  -29.1889 C   0  0  0  0  0  0  0  0  0  0  0  0
   -9.9168   15.4385  -29.8553 C   0  0  0  0  0  0  0  0  0  0  0  0
   -9.1263   16.4998  -29.3827 C   0  0  0  0  0  0  0  0  0  0  0  0
   -9.1400   17.7343  -30.0390 C   0  0  0  0  0  0  0  0  0  0  0  0
   -9.9391   17.9180  -31.1704 C   0  0  0  0  0  0  0  0  0  0  0  0
  -10.7259   16.8665  -31.6490 C   0  0  0  0  0  0  0  0  0  0  0  0
  -11.4954   17.0435  -32.7511 F   0  0  0  0  0  0  0  0  0  0  0  0
  -10.7138   15.6297  -30.9961 C   0  0  0  0  0  0  0  0  0  0  0  0
  -14.2210   13.5017  -27.0529 C   0  0  0  0  0  0  0  0  0  0  0  0
  1  2  1  0
  2  3  1  0
  3  4  2  0
  4  5  1  0
  5  6  2  0
  6  7  1  0
  6  8  1  0
  8  9  2  0
  9 10  1  0
 10 11  2  0
 11 12  1  0
 11  5  1  0
 12 13  1  0
 13 14  2  0
 14 15  1  0
 15 16  2  0
 16 17  1  0
 17 18  1  0
 17 29  2  0
 18 19  2  0
 19 20  1  0
 20 21  1  0
 20 16  1  0
 21 22  1  0
 22 23  2  0
 23 24  1  0
 24 25  2  0
 25 26  1  0
 26 27  1  0
 26 28  2  0
 28 22  1  0
 29 13  1  0
M  END
$$$$
CHEMBL255871_plants_04
     RDKit          3D

 29 32  0  0  0  0  0  0  0  0999 V2000
  -14.2159   18.5012  -22.9764 C   0  0  0  0  0  0  0  0  0  0  0  0
  -15.3591   17.6904  -22.7175 O   0  0  0  0  0  0  0  0  0  0  0  0
  -15.6887   16.5655  -23.4576 N   0  0  0  0  0  0  0  0  0  0  0  0
  -16.5927   15.6949  -23.1198 C   0  0  0  0  0  0  0  0  0  0  0  0
  -16.9626   14.5996  -24.0425 C   0  0  0  0  0  0  0  0  0  0  0  0
  -17.9856   13.6716  -23.7338 C   0  0  0  0  0  0  0  0  0  0  0  0
  -18.7586   13.7624  -22.5316 N   0  0  0  0  0  0  0  0  0  0  0  0
  -18.2949   12.6952  -24.6268 N   0  0  0  0  0  0  0  0  0  0  0  0
  -17.6597   12.5963  -25.8193 C   0  0  0  0  0  0  0  0  0  0  0  0
  -16.6883   13.4819  -26.1465 N   0  0  0  0  0  0  0  0  0  0  0  0
  -16.3089   14.4673  -25.2925 C   0  0  0  0  0  0  0  0  0  0  0  0
  -15.2559   15.3560  -25.7021 N   0  0  0  0  0  0  0  0  0  0  0  0
  -14.2119   14.9921  -26.6198 C   0  0  0  0  0  0  0  0  0  0  0  0
  -13.1830   15.9247  -26.9050 C   0  0  0  0  0  0  0  0  0  0  0  0
  -12.0941   15.5679  -27.7211 C   0  0  0  0  0  0  0  0  0  0  0  0
  -12.0783   14.2783  -28.2530 C   0  0  0  0  0  0  0  0  0  0  0  0
  -13.0884   13.3925  -28.0155 C   0  0  0  0  0  0  0  0  0  0  0  0
  -12.7213   12.2263  -28.6503 C   0  0  0  0  0  0  0  0  0  0  0  0
  -11.5135   12.4215  -29.2319 N   0  0  0  0  0  0  0  0  0  0  0  0
  -11.1322   13.6734  -28.9969 N   0  0  0  0  0  0  0  0  0  0  0  0
   -9.8120   14.1937  -29.3438 C   0  0  0  0  0  0  0  0  0  0  0  0
   -9.9449   15.5808  -29.9133 C   0  0  0  0  0  0  0  0  0  0  0  0
   -9.2384   16.6573  -29.3509 C   0  0  0  0  0  0  0  0  0  0  0  0
   -9.3295   17.9322  -29.9178 C   0  0  0  0  0  0  0  0  0  0  0  0
  -10.1228   18.1415  -31.0489 C   0  0  0  0  0  0  0  0  0  0  0  0
  -10.8262   17.0753  -31.6165 C   0  0  0  0  0  0  0  0  0  0  0  0
  -11.5900   17.2778  -32.7183 F   0  0  0  0  0  0  0  0  0  0  0  0
  -10.7365   15.7983  -31.0532 C   0  0  0  0  0  0  0  0  0  0  0  0
  -14.1777   13.7062  -27.2107 C   0  0  0  0  0  0  0  0  0  0  0  0
  1  2  1  0
  2  3  1  0
  3  4  2  0
  4  5  1  0
  5  6  2  0
  6  7  1  0
  6  8  1  0
  8  9  2  0
  9 10  1  0
 10 11  2  0
 11 12  1  0
 11  5  1  0
 12 13  1  0
 13 14  2  0
 14 15  1  0
 15 16  2  0
 16 17  1  0
 17 18  1  0
 17 29  2  0
 18 19  2  0
 19 20  1  0
 20 21  1  0
 20 16  1  0
 21 22  1  0
 22 23  2  0
 23 24  1  0
 24 25  2  0
 25 26  1  0
 26 27  1  0
 26 28  2  0
 28 22  1  0
 29 13  1  0
M  END
$$$$
CHEMBL255871_plants_05
     RDKit          3D

 29 32  0  0  0  0  0  0  0  0999 V2000
  -15.8152    9.8086  -28.3807 C   0  0  0  0  0  0  0  0  0  0  0  0
  -15.4988   10.6387  -27.2661 O   0  0  0  0  0  0  0  0  0  0  0  0
  -14.7915   11.8267  -27.3670 N   0  0  0  0  0  0  0  0  0  0  0  0
  -13.5954   11.9372  -27.8632 C   0  0  0  0  0  0  0  0  0  0  0  0
  -12.9787   13.2688  -28.0477 C   0  0  0  0  0  0  0  0  0  0  0  0
  -11.8995   13.4792  -28.9388 C   0  0  0  0  0  0  0  0  0  0  0  0
  -11.3679   12.4274  -29.7525 N   0  0  0  0  0  0  0  0  0  0  0  0
  -11.3828   14.7279  -29.0809 N   0  0  0  0  0  0  0  0  0  0  0  0
  -11.8873   15.7867  -28.4026 C   0  0  0  0  0  0  0  0  0  0  0  0
  -12.9308   15.6156  -27.5560 N   0  0  0  0  0  0  0  0  0  0  0  0
  -13.4806   14.3919  -27.3447 C   0  0  0  0  0  0  0  0  0  0  0  0
  -14.5721   14.2866  -26.4152 N   0  0  0  0  0  0  0  0  0  0  0  0
  -14.7878   15.1982  -25.3259 C   0  0  0  0  0  0  0  0  0  0  0  0
  -13.7765   16.1349  -24.9947 C   0  0  0  0  0  0  0  0  0  0  0  0
  -13.9924   17.1056  -23.9996 C   0  0  0  0  0  0  0  0  0  0  0  0
  -15.2222   17.0957  -23.3410 C   0  0  0  0  0  0  0  0  0  0  0  0
  -16.1813   16.1687  -23.6273 C   0  0  0  0  0  0  0  0  0  0  0  0
  -17.2591   16.4858  -22.8300 C   0  0  0  0  0  0  0  0  0  0  0  0
  -16.9423   17.5859  -22.1057 N   0  0  0  0  0  0  0  0  0  0  0  0
  -15.6996   17.9460  -22.4117 N   0  0  0  0  0  0  0  0  0  0  0  0
  -15.0759   19.1785  -21.9359 C   0  0  0  0  0  0  0  0  0  0  0  0
  -14.4659   19.9207  -23.0947 C   0  0  0  0  0  0  0  0  0  0  0  0
  -13.2262   20.5681  -22.9586 C   0  0  0  0  0  0  0  0  0  0  0  0
  -12.6442   21.2122  -24.0546 C   0  0  0  0  0  0  0  0  0  0  0  0
  -13.2924   21.2134  -25.2925 C   0  0  0  0  0  0  0  0  0  0  0  0
  -14.5243   20.5689  -25.4373 C   0  0  0  0  0  0  0  0  0  0  0  0
  -15.1490   20.5644  -26.6405 F   0  0  0  0  0  0  0  0  0  0  0  0
  -15.1089   19.9223  -24.3436 C   0  0  0  0  0  0  0  0  0  0  0  0
  -16.0071   15.1978  -24.6068 C   0  0  0  0  0  0  0  0  0  0  0  0
  1  2  1  0
  2  3  1  0
  3  4  2  0
  4  5  1  0
  5  6  2  0
  6  7  1  0
  6  8  1  0
  8  9  2  0
  9 10  1  0
 10 11  2  0
 11 12  1  0
 11  5  1  0
 12 13  1  0
 13 14  2  0
 14 15  1  0
 15 16  2  0
 16 17  1  0
 17 18  1  0
 17 29  2  0
 18 19  2  0
 19 20  1  0
 20 21  1  0
 20 16  1  0
 21 22  1  0
 22 23  2  0
 23 24  1  0
 24 25  2  0
 25 26  1  0
 26 27  1  0
 26 28  2  0
 28 22  1  0
 29 13  1  0
M  END
$$$$
CHEMBL255871_plants_06
     RDKit          3D

 29 32  0  0  0  0  0  0  0  0999 V2000
  -15.4192   10.0026  -28.4852 C   0  0  0  0  0  0  0  0  0  0  0  0
  -15.4094   10.7100  -27.2480 O   0  0  0  0  0  0  0  0  0  0  0  0
  -16.5426   11.2532  -26.6627 N   0  0  0  0  0  0  0  0  0  0  0  0
  -16.5346   12.1851  -25.7568 C   0  0  0  0  0  0  0  0  0  0  0  0
  -17.8011   12.7905  -25.2906 C   0  0  0  0  0  0  0  0  0  0  0  0
  -19.0592   12.3754  -25.7883 C   0  0  0  0  0  0  0  0  0  0  0  0
  -19.1889   11.3117  -26.7384 N   0  0  0  0  0  0  0  0  0  0  0  0
  -20.1918   12.9553  -25.3114 N   0  0  0  0  0  0  0  0  0  0  0  0
  -20.1504   13.9127  -24.3537 C   0  0  0  0  0  0  0  0  0  0  0  0
  -18.9602   14.3163  -23.8485 N   0  0  0  0  0  0  0  0  0  0  0  0
  -17.7867   13.7997  -24.2962 C   0  0  0  0  0  0  0  0  0  0  0  0
  -16.5631   14.2937  -23.7262 N   0  0  0  0  0  0  0  0  0  0  0  0
  -15.5696   15.0200  -24.4676 C   0  0  0  0  0  0  0  0  0  0  0  0
  -15.6421   15.0462  -25.8831 C   0  0  0  0  0  0  0  0  0  0  0  0
  -14.7453   15.8266  -26.6355 C   0  0  0  0  0  0  0  0  0  0  0  0
  -13.7752   16.5495  -25.9408 C   0  0  0  0  0  0  0  0  0  0  0  0
  -13.6755   16.4926  -24.5814 C   0  0  0  0  0  0  0  0  0  0  0  0
  -12.6531   17.3522  -24.2441 C   0  0  0  0  0  0  0  0  0  0  0  0
  -12.1771   17.9128  -25.3819 N   0  0  0  0  0  0  0  0  0  0  0  0
  -12.8549   17.4134  -26.4109 N   0  0  0  0  0  0  0  0  0  0  0  0
  -12.7163   17.9001  -27.7814 C   0  0  0  0  0  0  0  0  0  0  0  0
  -11.7927   16.9951  -28.5521 C   0  0  0  0  0  0  0  0  0  0  0  0
  -10.6990   17.5217  -29.2599 C   0  0  0  0  0  0  0  0  0  0  0  0
   -9.8182   16.6683  -29.9312 C   0  0  0  0  0  0  0  0  0  0  0  0
  -10.0203   15.2861  -29.8996 C   0  0  0  0  0  0  0  0  0  0  0  0
  -11.1039   14.7539  -29.1952 C   0  0  0  0  0  0  0  0  0  0  0  0
  -11.2952   13.4121  -29.1590 F   0  0  0  0  0  0  0  0  0  0  0  0
  -11.9864   15.6041  -28.5211 C   0  0  0  0  0  0  0  0  0  0  0  0
  -14.5459   15.7376  -23.8035 C   0  0  0  0  0  0  0  0  0  0  0  0
  1  2  1  0
  2  3  1  0
  3  4  2  0
  4  5  1  0
  5  6  2  0
  6  7  1  0
  6  8  1  0
  8  9  2  0
  9 10  1  0
 10 11  2  0
 11 12  1  0
 11  5  1  0
 12 13  1  0
 13 14  2  0
 14 15  1  0
 15 16  2  0
 16 17  1  0
 17 18  1  0
 17 29  2  0
 18 19  2  0
 19 20  1  0
 20 21  1  0
 20 16  1  0
 21 22  1  0
 22 23  2  0
 23 24  1  0
 24 25  2  0
 25 26  1  0
 26 27  1  0
 26 28  2  0
 28 22  1  0
 29 13  1  0
M  END
$$$$
CHEMBL255871_plants_07
     RDKit          3D

 29 32  0  0  0  0  0  0  0  0999 V2000
  -16.3035    9.2144  -29.7427 C   0  0  0  0  0  0  0  0  0  0  0  0
  -15.5911    9.4762  -28.5364 O   0  0  0  0  0  0  0  0  0  0  0  0
  -15.8673   10.5429  -27.6950 N   0  0  0  0  0  0  0  0  0  0  0  0
  -16.7784   10.5389  -26.7681 C   0  0  0  0  0  0  0  0  0  0  0  0
  -16.9064   11.6800  -25.8358 C   0  0  0  0  0  0  0  0  0  0  0  0
  -17.9547   11.7612  -24.8886 C   0  0  0  0  0  0  0  0  0  0  0  0
  -18.9295   10.7225  -24.7407 N   0  0  0  0  0  0  0  0  0  0  0  0
  -18.0135   12.8251  -24.0451 N   0  0  0  0  0  0  0  0  0  0  0  0
  -17.0801   13.8066  -24.0740 C   0  0  0  0  0  0  0  0  0  0  0  0
  -16.0571   13.7446  -24.9597 N   0  0  0  0  0  0  0  0  0  0  0  0
  -15.9494   12.7247  -25.8499 C   0  0  0  0  0  0  0  0  0  0  0  0
  -14.8474   12.7392  -26.7728 N   0  0  0  0  0  0  0  0  0  0  0  0
  -14.0527   13.9028  -27.0538 C   0  0  0  0  0  0  0  0  0  0  0  0
  -13.5689   14.1110  -28.3699 C   0  0  0  0  0  0  0  0  0  0  0  0
  -12.8718   15.2867  -28.7030 C   0  0  0  0  0  0  0  0  0  0  0  0
  -12.6572   16.2216  -27.6900 C   0  0  0  0  0  0  0  0  0  0  0  0
  -13.0839   16.0050  -26.4125 C   0  0  0  0  0  0  0  0  0  0  0  0
  -12.7444   17.1382  -25.7065 C   0  0  0  0  0  0  0  0  0  0  0  0
  -12.1473   18.0061  -26.5583 N   0  0  0  0  0  0  0  0  0  0  0  0
  -12.0868   17.4399  -27.7598 N   0  0  0  0  0  0  0  0  0  0  0  0
  -11.6429   18.1420  -28.9616 C   0  0  0  0  0  0  0  0  0  0  0  0
  -10.8625   17.2023  -29.8412 C   0  0  0  0  0  0  0  0  0  0  0  0
  -10.8891   17.3407  -31.2393 C   0  0  0  0  0  0  0  0  0  0  0  0
  -10.1214   16.4946  -32.0452 C   0  0  0  0  0  0  0  0  0  0  0  0
   -9.3216   15.5075  -31.4634 C   0  0  0  0  0  0  0  0  0  0  0  0
   -9.2869   15.3652  -30.0734 C   0  0  0  0  0  0  0  0  0  0  0  0
   -8.5050   14.4120  -29.5094 F   0  0  0  0  0  0  0  0  0  0  0  0
  -10.0522   16.2107  -29.2637 C   0  0  0  0  0  0  0  0  0  0  0  0
  -13.7801   14.8588  -26.0460 C   0  0  0  0  0  0  0  0  0  0  0  0
  1  2  1  0
  2  3  1  0
  3  4  2  0
  4  5  1  0
  5  6  2  0
  6  7  1  0
  6  8  1  0
  8  9  2  0
  9 10  1  0
 10 11  2  0
 11 12  1  0
 11  5  1  0
 12 13  1  0
 13 14  2  0
 14 15  1  0
 15 16  2  0
 16 17  1  0
 17 18  1  0
 17 29  2  0
 18 19  2  0
 19 20  1  0
 20 21  1  0
 20 16  1  0
 21 22  1  0
 22 23  2  0
 23 24  1  0
 24 25  2  0
 25 26  1  0
 26 27  1  0
 26 28  2  0
 28 22  1  0
 29 13  1  0
M  END
$$$$
CHEMBL255871_plants_08
     RDKit          3D

 29 32  0  0  0  0  0  0  0  0999 V2000
  -18.6267   10.4622  -26.7036 C   0  0  0  0  0  0  0  0  0  0  0  0
  -17.2835   10.8962  -26.5068 O   0  0  0  0  0  0  0  0  0  0  0  0
  -16.9035   11.8068  -25.5330 N   0  0  0  0  0  0  0  0  0  0  0  0
  -16.6232   13.0562  -25.7556 C   0  0  0  0  0  0  0  0  0  0  0  0
  -16.3561   13.9782  -24.6304 C   0  0  0  0  0  0  0  0  0  0  0  0
  -16.5999   13.6114  -23.2854 C   0  0  0  0  0  0  0  0  0  0  0  0
  -17.0753   12.3093  -22.9256 N   0  0  0  0  0  0  0  0  0  0  0  0
  -16.3199   14.4932  -22.2901 N   0  0  0  0  0  0  0  0  0  0  0  0
  -15.7934   15.7141  -22.5503 C   0  0  0  0  0  0  0  0  0  0  0  0
  -15.5350   16.0836  -23.8276 N   0  0  0  0  0  0  0  0  0  0  0  0
  -15.8137   15.2643  -24.8741 C   0  0  0  0  0  0  0  0  0  0  0  0
  -15.5307   15.7352  -26.2024 N   0  0  0  0  0  0  0  0  0  0  0  0
  -14.4089   15.2969  -26.9860 C   0  0  0  0  0  0  0  0  0  0  0  0
  -13.3534   16.2044  -27.2544 C   0  0  0  0  0  0  0  0  0  0  0  0
  -12.1962   15.7820  -27.9337 C   0  0  0  0  0  0  0  0  0  0  0  0
  -12.1385   14.4516  -28.3497 C   0  0  0  0  0  0  0  0  0  0  0  0
  -13.1706   13.5867  -28.1310 C   0  0  0  0  0  0  0  0  0  0  0  0
  -12.7531   12.3714  -28.6274 C   0  0  0  0  0  0  0  0  0  0  0  0
  -11.4960   12.5194  -29.1104 N   0  0  0  0  0  0  0  0  0  0  0  0
  -11.1314   13.7878  -28.9493 N   0  0  0  0  0  0  0  0  0  0  0  0
   -9.7822   14.2800  -29.2170 C   0  0  0  0  0  0  0  0  0  0  0  0
   -9.8549   15.6294  -29.8801 C   0  0  0  0  0  0  0  0  0  0  0  0
   -9.0702   16.6990  -29.4168 C   0  0  0  0  0  0  0  0  0  0  0  0
   -9.1074   17.9343  -30.0706 C   0  0  0  0  0  0  0  0  0  0  0  0
   -9.9242   18.1106  -31.1905 C   0  0  0  0  0  0  0  0  0  0  0  0
  -10.7054   17.0509  -31.6599 C   0  0  0  0  0  0  0  0  0  0  0  0
  -11.4922   17.2206  -32.7508 F   0  0  0  0  0  0  0  0  0  0  0  0
  -10.6699   15.8132  -31.0095 C   0  0  0  0  0  0  0  0  0  0  0  0
  -14.3274   13.9653  -27.4592 C   0  0  0  0  0  0  0  0  0  0  0  0
  1  2  1  0
  2  3  1  0
  3  4  2  0
  4  5  1  0
  5  6  2  0
  6  7  1  0
  6  8  1  0
  8  9  2  0
  9 10  1  0
 10 11  2  0
 11 12  1  0
 11  5  1  0
 12 13  1  0
 13 14  2  0
 14 15  1  0
 15 16  2  0
 16 17  1  0
 17 18  1  0
 17 29  2  0
 18 19  2  0
 19 20  1  0
 20 21  1  0
 20 16  1  0
 21 22  1  0
 22 23  2  0
 23 24  1  0
 24 25  2  0
 25 26  1  0
 26 27  1  0
 26 28  2  0
 28 22  1  0
 29 13  1  0
M  END
$$$$
CHEMBL255871_plants_09
     RDKit          3D

 29 32  0  0  0  0  0  0  0  0999 V2000
   -8.8033   18.5112  -29.7492 C   0  0  0  0  0  0  0  0  0  0  0  0
  -10.0648   18.2221  -30.3464 O   0  0  0  0  0  0  0  0  0  0  0  0
  -10.8588   17.1447  -29.9851 N   0  0  0  0  0  0  0  0  0  0  0  0
  -10.4101   15.9668  -29.6678 C   0  0  0  0  0  0  0  0  0  0  0  0
  -11.3303   14.9217  -29.1691 C   0  0  0  0  0  0  0  0  0  0  0  0
  -11.0664   13.5427  -29.3464 C   0  0  0  0  0  0  0  0  0  0  0  0
   -9.8701   13.0713  -29.9771 N   0  0  0  0  0  0  0  0  0  0  0  0
  -11.9390   12.6255  -28.8524 N   0  0  0  0  0  0  0  0  0  0  0  0
  -13.0517   12.9970  -28.1748 C   0  0  0  0  0  0  0  0  0  0  0  0
  -13.3192   14.3100  -27.9767 N   0  0  0  0  0  0  0  0  0  0  0  0
  -12.5057   15.2819  -28.4647 C   0  0  0  0  0  0  0  0  0  0  0  0
  -12.8671   16.6536  -28.2318 N   0  0  0  0  0  0  0  0  0  0  0  0
  -13.7427   17.0836  -27.1769 C   0  0  0  0  0  0  0  0  0  0  0  0
  -14.0261   16.1982  -26.1066 C   0  0  0  0  0  0  0  0  0  0  0  0
  -14.7992   16.6196  -25.0094 C   0  0  0  0  0  0  0  0  0  0  0  0
  -15.2912   17.9250  -25.0267 C   0  0  0  0  0  0  0  0  0  0  0  0
  -15.0564   18.7657  -26.0752 C   0  0  0  0  0  0  0  0  0  0  0  0
  -15.6447   19.9638  -25.7342 C   0  0  0  0  0  0  0  0  0  0  0  0
  -16.1968   19.8307  -24.5042 N   0  0  0  0  0  0  0  0  0  0  0  0
  -15.9888   18.5868  -24.0834 N   0  0  0  0  0  0  0  0  0  0  0  0
  -16.3130   18.1257  -22.7356 C   0  0  0  0  0  0  0  0  0  0  0  0
  -17.1381   16.8690  -22.8121 C   0  0  0  0  0  0  0  0  0  0  0  0
  -18.5290   16.9351  -23.0003 C   0  0  0  0  0  0  0  0  0  0  0  0
  -19.2798   15.7617  -23.1202 C   0  0  0  0  0  0  0  0  0  0  0  0
  -18.6494   14.5164  -23.0557 C   0  0  0  0  0  0  0  0  0  0  0  0
  -17.2658   14.4418  -22.8720 C   0  0  0  0  0  0  0  0  0  0  0  0
  -16.6540   13.2332  -22.8167 F   0  0  0  0  0  0  0  0  0  0  0  0
  -16.5112   15.6133  -22.7531 C   0  0  0  0  0  0  0  0  0  0  0  0
  -14.2933   18.3877  -27.1740 C   0  0  0  0  0  0  0  0  0  0  0  0
  1  2  1  0
  2  3  1  0
  3  4  2  0
  4  5  1  0
  5  6  2  0
  6  7  1  0
  6  8  1  0
  8  9  2  0
  9 10  1  0
 10 11  2  0
 11 12  1  0
 11  5  1  0
 12 13  1  0
 13 14  2  0
 14 15  1  0
 15 16  2  0
 16 17  1  0
 17 18  1  0
 17 29  2  0
 18 19  2  0
 19 20  1  0
 20 21  1  0
 20 16  1  0
 21 22  1  0
 22 23  2  0
 23 24  1  0
 24 25  2  0
 25 26  1  0
 26 27  1  0
 26 28  2  0
 28 22  1  0
 29 13  1  0
M  END
$$$$
CHEMBL255871_plants_10
     RDKit          3D

 29 32  0  0  0  0  0  0  0  0999 V2000
   -9.2618   18.7640  -30.0498 C   0  0  0  0  0  0  0  0  0  0  0  0
   -8.7931   17.4523  -30.3517 O   0  0  0  0  0  0  0  0  0  0  0  0
   -9.4817   16.2944  -30.0249 N   0  0  0  0  0  0  0  0  0  0  0  0
  -10.5597   16.2528  -29.3001 C   0  0  0  0  0  0  0  0  0  0  0  0
  -11.2940   14.9819  -29.1180 C   0  0  0  0  0  0  0  0  0  0  0  0
  -10.7840   13.7470  -29.5848 C   0  0  0  0  0  0  0  0  0  0  0  0
   -9.5047   13.6429  -30.2201 N   0  0  0  0  0  0  0  0  0  0  0  0
  -11.4941   12.6076  -29.3748 N   0  0  0  0  0  0  0  0  0  0  0  0
  -12.6749   12.6189  -28.7107 C   0  0  0  0  0  0  0  0  0  0  0  0
  -13.1772   13.7851  -28.2390 N   0  0  0  0  0  0  0  0  0  0  0  0
  -12.5352   14.9657  -28.4348 C   0  0  0  0  0  0  0  0  0  0  0  0
  -13.1414   16.1642  -27.9226 N   0  0  0  0  0  0  0  0  0  0  0  0
  -14.0943   16.1838  -26.8475 C   0  0  0  0  0  0  0  0  0  0  0  0
  -14.2449   15.0332  -26.0331 C   0  0  0  0  0  0  0  0  0  0  0  0
  -15.0960   15.0505  -24.9130 C   0  0  0  0  0  0  0  0  0  0  0  0
  -15.7977   16.2274  -24.6507 C   0  0  0  0  0  0  0  0  0  0  0  0
  -15.6880   17.3223  -25.4571 C   0  0  0  0  0  0  0  0  0  0  0  0
  -16.4731   18.2949  -24.8778 C   0  0  0  0  0  0  0  0  0  0  0  0
  -17.0163   17.7840  -23.7469 N   0  0  0  0  0  0  0  0  0  0  0  0
  -16.6117   16.5239  -23.6193 N   0  0  0  0  0  0  0  0  0  0  0  0
  -16.8778   15.7063  -22.4382 C   0  0  0  0  0  0  0  0  0  0  0  0
  -17.1364   14.2824  -22.8524 C   0  0  0  0  0  0  0  0  0  0  0  0
  -16.7886   13.2154  -22.0069 C   0  0  0  0  0  0  0  0  0  0  0  0
  -17.0785   11.8991  -22.3787 C   0  0  0  0  0  0  0  0  0  0  0  0
  -17.7181   11.6383  -23.5932 C   0  0  0  0  0  0  0  0  0  0  0  0
  -18.0706   12.6941  -24.4387 C   0  0  0  0  0  0  0  0  0  0  0  0
  -18.6977   12.4407  -25.6137 F   0  0  0  0  0  0  0  0  0  0  0  0
  -17.7836   14.0123  -24.0697 C   0  0  0  0  0  0  0  0  0  0  0  0
  -14.8539   17.3454  -26.5691 C   0  0  0  0  0  0  0  0  0  0  0  0
  1  2  1  0
  2  3  1  0
  3  4  2  0
  4  5  1  0
  5  6  2  0
  6  7  1  0
  6  8  1  0
  8  9  2  0
  9 10  1  0
 10 11  2  0
 11 12  1  0
 11  5  1  0
 12 13  1  0
 13 14  2  0
 14 15  1  0
 15 16  2  0
 16 17  1  0
 17 18  1  0
 17 29  2  0
 18 19  2  0
 19 20  1  0
 20 21  1  0
 20 16  1  0
 21 22  1  0
 22 23  2  0
 23 24  1  0
 24 25  2  0
 25 26  1  0
 26 27  1  0
 26 28  2  0
 28 22  1  0
 29 13  1  0
M  END
$$$$
CHEMBL2424807_plants_01
     RDKit          3D

 27 30  0  0  0  0  0  0  0  0999 V2000
  -15.6116    9.0686  -28.8512 Cl  0  0  0  0  0  0  0  0  0  0  0  0
  -16.2962   10.1187  -27.6242 C   0  0  0  0  0  0  0  0  0  0  0  0
  -17.3856    9.6857  -26.8622 C   0  0  0  0  0  0  0  0  0  0  0  0
  -17.9330   10.5229  -25.8873 C   0  0  0  0  0  0  0  0  0  0  0  0
  -17.3916   11.7928  -25.6678 C   0  0  0  0  0  0  0  0  0  0  0  0
  -16.2865   12.2342  -26.4218 C   0  0  0  0  0  0  0  0  0  0  0  0
  -15.7058   13.5360  -26.2183 N   0  0  0  0  0  0  0  0  0  0  0  0
  -14.4739   13.9637  -26.8162 C   0  0  0  0  0  0  0  0  0  0  0  0
  -13.5449   13.0245  -27.1365 N   0  0  0  0  0  0  0  0  0  0  0  0
  -12.3655   13.3605  -27.7181 C   0  0  0  0  0  0  0  0  0  0  0  0
  -12.0846   14.6598  -27.9891 N   0  0  0  0  0  0  0  0  0  0  0  0
  -12.9629   15.6462  -27.6737 C   0  0  0  0  0  0  0  0  0  0  0  0
  -12.6389   16.9787  -27.9440 C   0  0  0  0  0  0  0  0  0  0  0  0
  -13.5220   18.0012  -27.5927 C   0  0  0  0  0  0  0  0  0  0  0  0
  -14.7406   17.7045  -26.9577 C   0  0  0  0  0  0  0  0  0  0  0  0
  -15.6266   18.7676  -26.5444 N   0  0  0  0  0  0  0  0  0  0  0  0
  -14.9021   20.0389  -26.3827 C   0  0  0  0  0  0  0  0  0  0  0  0
  -14.2022   20.1154  -25.0515 C   0  0  0  0  0  0  0  0  0  0  0  0
  -12.9945   20.8166  -24.9144 C   0  0  0  0  0  0  0  0  0  0  0  0
  -12.3965   20.9098  -23.6565 C   0  0  0  0  0  0  0  0  0  0  0  0
  -13.0045   20.3117  -22.5516 C   0  0  0  0  0  0  0  0  0  0  0  0
  -14.2107   19.6272  -22.7231 C   0  0  0  0  0  0  0  0  0  0  0  0
  -15.0729   18.8082  -21.2320 Br  0  0  0  0  0  0  0  0  0  0  0  0
  -14.7793   19.5489  -23.9560 N   0  0  0  0  0  0  0  0  0  0  0  0
  -15.0650   16.3645  -26.6821 C   0  0  0  0  0  0  0  0  0  0  0  0
  -14.1920   15.3261  -27.0568 C   0  0  0  0  0  0  0  0  0  0  0  0
  -15.7515   11.3895  -27.4072 C   0  0  0  0  0  0  0  0  0  0  0  0
  1  2  1  0
  2  3  2  0
  3  4  1  0
  4  5  2  0
  5  6  1  0
  6  7  1  0
  6 27  2  0
  7  8  1  0
  8  9  2  0
  9 10  1  0
 10 11  2  0
 11 12  1  0
 12 13  2  0
 13 14  1  0
 14 15  2  0
 15 16  1  0
 15 25  1  0
 16 17  1  0
 17 18  1  0
 18 19  2  0
 19 20  1  0
 20 21  2  0
 21 22  1  0
 22 23  1  0
 22 24  2  0
 24 18  1  0
 25 26  2  0
 26  8  1  0
 26 12  1  0
 27  2  1  0
M  END
$$$$
CHEMBL2424807_plants_02
     RDKit          3D

 27 30  0  0  0  0  0  0  0  0999 V2000
  -13.3939   21.2853  -24.8114 Cl  0  0  0  0  0  0  0  0  0  0  0  0
  -14.1630   19.8433  -25.4486 C   0  0  0  0  0  0  0  0  0  0  0  0
  -14.3724   19.7129  -26.8248 C   0  0  0  0  0  0  0  0  0  0  0  0
  -14.9876   18.5661  -27.3323 C   0  0  0  0  0  0  0  0  0  0  0  0
  -15.3916   17.5450  -26.4674 C   0  0  0  0  0  0  0  0  0  0  0  0
  -15.1746   17.6610  -25.0803 C   0  0  0  0  0  0  0  0  0  0  0  0
  -15.5781   16.6260  -24.1642 N   0  0  0  0  0  0  0  0  0  0  0  0
  -16.0787   15.3459  -24.5751 C   0  0  0  0  0  0  0  0  0  0  0  0
  -17.2546   14.9082  -24.0522 N   0  0  0  0  0  0  0  0  0  0  0  0
  -17.7908   13.7137  -24.4100 C   0  0  0  0  0  0  0  0  0  0  0  0
  -17.1509   12.9196  -25.3047 N   0  0  0  0  0  0  0  0  0  0  0  0
  -15.9626   13.2917  -25.8462 C   0  0  0  0  0  0  0  0  0  0  0  0
  -15.3139   12.4445  -26.7490 C   0  0  0  0  0  0  0  0  0  0  0  0
  -14.0760   12.8047  -27.2847 C   0  0  0  0  0  0  0  0  0  0  0  0
  -13.4654   14.0165  -26.9177 C   0  0  0  0  0  0  0  0  0  0  0  0
  -12.1593   14.3605  -27.4295 N   0  0  0  0  0  0  0  0  0  0  0  0
  -11.8774   13.6640  -28.6954 C   0  0  0  0  0  0  0  0  0  0  0  0
  -10.7532   14.3195  -29.4532 C   0  0  0  0  0  0  0  0  0  0  0  0
   -9.5224   13.6665  -29.6194 C   0  0  0  0  0  0  0  0  0  0  0  0
   -8.5176   14.2808  -30.3689 C   0  0  0  0  0  0  0  0  0  0  0  0
   -8.7469   15.5304  -30.9470 C   0  0  0  0  0  0  0  0  0  0  0  0
   -9.9871   16.1490  -30.7671 C   0  0  0  0  0  0  0  0  0  0  0  0
  -10.3363   17.8514  -31.5528 Br  0  0  0  0  0  0  0  0  0  0  0  0
  -10.9544   15.5340  -30.0353 N   0  0  0  0  0  0  0  0  0  0  0  0
  -14.1159   14.8671  -26.0066 C   0  0  0  0  0  0  0  0  0  0  0  0
  -15.3759   14.5234  -25.4824 C   0  0  0  0  0  0  0  0  0  0  0  0
  -14.5661   18.8229  -24.5797 C   0  0  0  0  0  0  0  0  0  0  0  0
  1  2  1  0
  2  3  2  0
  3  4  1  0
  4  5  2  0
  5  6  1  0
  6  7  1  0
  6 27  2  0
  7  8  1  0
  8  9  2  0
  9 10  1  0
 10 11  2  0
 11 12  1  0
 12 13  2  0
 13 14  1  0
 14 15  2  0
 15 16  1  0
 15 25  1  0
 16 17  1  0
 17 18  1  0
 18 19  2  0
 19 20  1  0
 20 21  2  0
 21 22  1  0
 22 23  1  0
 22 24  2  0
 24 18  1  0
 25 26  2  0
 26  8  1  0
 26 12  1  0
 27  2  1  0
M  END
$$$$
CHEMBL2424807_plants_03
     RDKit          3D

 27 30  0  0  0  0  0  0  0  0999 V2000
   -9.8333   17.1766  -30.2613 Cl  0  0  0  0  0  0  0  0  0  0  0  0
  -10.7370   15.9104  -29.4508 C   0  0  0  0  0  0  0  0  0  0  0  0
  -10.5245   14.5715  -29.7930 C   0  0  0  0  0  0  0  0  0  0  0  0
  -11.2462   13.5631  -29.1499 C   0  0  0  0  0  0  0  0  0  0  0  0
  -12.1788   13.8887  -28.1609 C   0  0  0  0  0  0  0  0  0  0  0  0
  -12.3920   15.2337  -27.8002 C   0  0  0  0  0  0  0  0  0  0  0  0
  -13.3444   15.6007  -26.7846 N   0  0  0  0  0  0  0  0  0  0  0  0
  -14.3911   14.7362  -26.3208 C   0  0  0  0  0  0  0  0  0  0  0  0
  -14.6815   13.6207  -27.0414 N   0  0  0  0  0  0  0  0  0  0  0  0
  -15.6494   12.7535  -26.6499 C   0  0  0  0  0  0  0  0  0  0  0  0
  -16.3601   12.9902  -25.5187 N   0  0  0  0  0  0  0  0  0  0  0  0
  -16.1313   14.0979  -24.7674 C   0  0  0  0  0  0  0  0  0  0  0  0
  -16.8929   14.3285  -23.6183 C   0  0  0  0  0  0  0  0  0  0  0  0
  -16.6866   15.4816  -22.8589 C   0  0  0  0  0  0  0  0  0  0  0  0
  -15.7186   16.4255  -23.2438 C   0  0  0  0  0  0  0  0  0  0  0  0
  -15.5462   17.6443  -22.4883 N   0  0  0  0  0  0  0  0  0  0  0  0
  -14.1576   18.1281  -22.5580 C   0  0  0  0  0  0  0  0  0  0  0  0
  -13.9774   19.1474  -23.6518 C   0  0  0  0  0  0  0  0  0  0  0  0
  -13.2242   20.3109  -23.4323 C   0  0  0  0  0  0  0  0  0  0  0  0
  -13.0355   21.2118  -24.4818 C   0  0  0  0  0  0  0  0  0  0  0  0
  -13.5909   20.9463  -25.7344 C   0  0  0  0  0  0  0  0  0  0  0  0
  -14.3293   19.7744  -25.9197 C   0  0  0  0  0  0  0  0  0  0  0  0
  -15.0922   19.3765  -27.6217 Br  0  0  0  0  0  0  0  0  0  0  0  0
  -14.5007   18.9075  -24.8859 N   0  0  0  0  0  0  0  0  0  0  0  0
  -14.9551   16.1957  -24.4017 C   0  0  0  0  0  0  0  0  0  0  0  0
  -15.1388   15.0231  -25.1581 C   0  0  0  0  0  0  0  0  0  0  0  0
  -11.6699   16.2400  -28.4610 C   0  0  0  0  0  0  0  0  0  0  0  0
  1  2  1  0
  2  3  2  0
  3  4  1  0
  4  5  2  0
  5  6  1  0
  6  7  1  0
  6 27  2  0
  7  8  1  0
  8  9  2  0
  9 10  1  0
 10 11  2  0
 11 12  1  0
 12 13  2  0
 13 14  1  0
 14 15  2  0
 15 16  1  0
 15 25  1  0
 16 17  1  0
 17 18  1  0
 18 19  2  0
 19 20  1  0
 20 21  2  0
 21 22  1  0
 22 23  1  0
 22 24  2  0
 24 18  1  0
 25 26  2  0
 26  8  1  0
 26 12  1  0
 27  2  1  0
M  END
$$$$
CHEMBL2424807_plants_04
     RDKit          3D

 27 30  0  0  0  0  0  0  0  0999 V2000
  -10.4694   17.3929  -29.7234 Cl  0  0  0  0  0  0  0  0  0  0  0  0
  -11.0721   15.8293  -29.2049 C   0  0  0  0  0  0  0  0  0  0  0  0
  -10.5366   14.6582  -29.7496 C   0  0  0  0  0  0  0  0  0  0  0  0
  -11.0185   13.4130  -29.3393 C   0  0  0  0  0  0  0  0  0  0  0  0
  -12.0333   13.3337  -28.3813 C   0  0  0  0  0  0  0  0  0  0  0  0
  -12.5715   14.5072  -27.8174 C   0  0  0  0  0  0  0  0  0  0  0  0
  -13.6162   14.4583  -26.8278 N   0  0  0  0  0  0  0  0  0  0  0  0
  -14.5976   13.4146  -26.7527 C   0  0  0  0  0  0  0  0  0  0  0  0
  -14.4622   12.3338  -27.5659 N   0  0  0  0  0  0  0  0  0  0  0  0
  -15.3471   11.3051  -27.5342 C   0  0  0  0  0  0  0  0  0  0  0  0
  -16.4024   11.3394  -26.6823 N   0  0  0  0  0  0  0  0  0  0  0  0
  -16.6038   12.4010  -25.8600 C   0  0  0  0  0  0  0  0  0  0  0  0
  -17.7114   12.4204  -25.0077 C   0  0  0  0  0  0  0  0  0  0  0  0
  -17.9438   13.5228  -24.1833 C   0  0  0  0  0  0  0  0  0  0  0  0
  -17.0736   14.6266  -24.2061 C   0  0  0  0  0  0  0  0  0  0  0  0
  -17.3474   15.7893  -23.3941 N   0  0  0  0  0  0  0  0  0  0  0  0
  -16.1237   16.5666  -23.1383 C   0  0  0  0  0  0  0  0  0  0  0  0
  -16.1264   17.8723  -23.8887 C   0  0  0  0  0  0  0  0  0  0  0  0
  -16.9633   18.9266  -23.4925 C   0  0  0  0  0  0  0  0  0  0  0  0
  -16.9061   20.1406  -24.1793 C   0  0  0  0  0  0  0  0  0  0  0  0
  -16.0184   20.2953  -25.2452 C   0  0  0  0  0  0  0  0  0  0  0  0
  -15.1943   19.2267  -25.6083 C   0  0  0  0  0  0  0  0  0  0  0  0
  -13.9626   19.4089  -27.0530 Br  0  0  0  0  0  0  0  0  0  0  0  0
  -15.2627   18.0522  -24.9260 N   0  0  0  0  0  0  0  0  0  0  0  0
  -15.9616   14.6090  -25.0662 C   0  0  0  0  0  0  0  0  0  0  0  0
  -15.7058   13.4904  -25.8811 C   0  0  0  0  0  0  0  0  0  0  0  0
  -12.0882   15.7537  -28.2455 C   0  0  0  0  0  0  0  0  0  0  0  0
  1  2  1  0
  2  3  2  0
  3  4  1  0
  4  5  2  0
  5  6  1  0
  6  7  1  0
  6 27  2  0
  7  8  1  0
  8  9  2  0
  9 10  1  0
 10 11  2  0
 11 12  1  0
 12 13  2  0
 13 14  1  0
 14 15  2  0
 15 16  1  0
 15 25  1  0
 16 17  1  0
 17 18  1  0
 18 19  2  0
 19 20  1  0
 20 21  2  0
 21 22  1  0
 22 23  1  0
 22 24  2  0
 24 18  1  0
 25 26  2  0
 26  8  1  0
 26 12  1  0
 27  2  1  0
M  END
$$$$
CHEMBL2424807_plants_05
     RDKit          3D

 27 30  0  0  0  0  0  0  0  0999 V2000
  -12.3916   20.5890  -23.6915 Cl  0  0  0  0  0  0  0  0  0  0  0  0
  -13.4310   19.9847  -24.9688 C   0  0  0  0  0  0  0  0  0  0  0  0
  -14.4866   20.7703  -25.4413 C   0  0  0  0  0  0  0  0  0  0  0  0
  -15.3164   20.2882  -26.4562 C   0  0  0  0  0  0  0  0  0  0  0  0
  -15.0918   19.0223  -27.0048 C   0  0  0  0  0  0  0  0  0  0  0  0
  -14.0237   18.2275  -26.5443 C   0  0  0  0  0  0  0  0  0  0  0  0
  -13.7658   16.9203  -27.0902 N   0  0  0  0  0  0  0  0  0  0  0  0
  -12.6287   16.6052  -27.9060 C   0  0  0  0  0  0  0  0  0  0  0  0
  -11.7987   17.6133  -28.2836 N   0  0  0  0  0  0  0  0  0  0  0  0
  -10.6976   17.3810  -29.0425 C   0  0  0  0  0  0  0  0  0  0  0  0
  -10.4035   16.1208  -29.4497 N   0  0  0  0  0  0  0  0  0  0  0  0
  -11.2052   15.0747  -29.1228 C   0  0  0  0  0  0  0  0  0  0  0  0
  -10.8906   13.7898  -29.5739 C   0  0  0  0  0  0  0  0  0  0  0  0
  -11.7275   12.7145  -29.2701 C   0  0  0  0  0  0  0  0  0  0  0  0
  -12.8971   12.9118  -28.5157 C   0  0  0  0  0  0  0  0  0  0  0  0
  -13.7903   11.8080  -28.2508 N   0  0  0  0  0  0  0  0  0  0  0  0
  -14.6292   12.0669  -27.0692 C   0  0  0  0  0  0  0  0  0  0  0  0
  -15.9175   11.2888  -27.1198 C   0  0  0  0  0  0  0  0  0  0  0  0
  -16.0199   10.1182  -27.8867 C   0  0  0  0  0  0  0  0  0  0  0  0
  -17.2130    9.3935  -27.8732 C   0  0  0  0  0  0  0  0  0  0  0  0
  -18.2859    9.8353  -27.0974 C   0  0  0  0  0  0  0  0  0  0  0  0
  -18.1469   11.0016  -26.3402 C   0  0  0  0  0  0  0  0  0  0  0  0
  -19.5900   11.6262  -25.2611 Br  0  0  0  0  0  0  0  0  0  0  0  0
  -16.9760   11.6930  -26.3645 N   0  0  0  0  0  0  0  0  0  0  0  0
  -13.2158   14.2049  -28.0651 C   0  0  0  0  0  0  0  0  0  0  0  0
  -12.3637   15.2896  -28.3448 C   0  0  0  0  0  0  0  0  0  0  0  0
  -13.2030   18.7168  -25.5158 C   0  0  0  0  0  0  0  0  0  0  0  0
  1  2  1  0
  2  3  2  0
  3  4  1  0
  4  5  2  0
  5  6  1  0
  6  7  1  0
  6 27  2  0
  7  8  1  0
  8  9  2  0
  9 10  1  0
 10 11  2  0
 11 12  1  0
 12 13  2  0
 13 14  1  0
 14 15  2  0
 15 16  1  0
 15 25  1  0
 16 17  1  0
 17 18  1  0
 18 19  2  0
 19 20  1  0
 20 21  2  0
 21 22  1  0
 22 23  1  0
 22 24  2  0
 24 18  1  0
 25 26  2  0
 26  8  1  0
 26 12  1  0
 27  2  1  0
M  END
$$$$
CHEMBL2424807_plants_06
     RDKit          3D

 27 30  0  0  0  0  0  0  0  0999 V2000
  -11.7709   17.2613  -28.3244 Cl  0  0  0  0  0  0  0  0  0  0  0  0
  -12.1161   15.5437  -28.4110 C   0  0  0  0  0  0  0  0  0  0  0  0
  -11.4327   14.7388  -29.3276 C   0  0  0  0  0  0  0  0  0  0  0  0
  -11.7096   13.3716  -29.3990 C   0  0  0  0  0  0  0  0  0  0  0  0
  -12.6664   12.8038  -28.5528 C   0  0  0  0  0  0  0  0  0  0  0  0
  -13.3521   13.6036  -27.6175 C   0  0  0  0  0  0  0  0  0  0  0  0
  -14.3418   13.0480  -26.7315 N   0  0  0  0  0  0  0  0  0  0  0  0
  -15.1421   11.8999  -27.0468 C   0  0  0  0  0  0  0  0  0  0  0  0
  -14.8971   11.2339  -28.2061 N   0  0  0  0  0  0  0  0  0  0  0  0
  -15.6075   10.1318  -28.5566 C   0  0  0  0  0  0  0  0  0  0  0  0
  -16.5942    9.6708  -27.7476 N   0  0  0  0  0  0  0  0  0  0  0  0
  -16.9007   10.3048  -26.5866 C   0  0  0  0  0  0  0  0  0  0  0  0
  -17.9367    9.8212  -25.7825 C   0  0  0  0  0  0  0  0  0  0  0  0
  -18.2799   10.4865  -24.6041 C   0  0  0  0  0  0  0  0  0  0  0  0
  -17.5950   11.6515  -24.2173 C   0  0  0  0  0  0  0  0  0  0  0  0
  -17.9891   12.3693  -23.0275 N   0  0  0  0  0  0  0  0  0  0  0  0
  -16.8361   13.0236  -22.3876 C   0  0  0  0  0  0  0  0  0  0  0  0
  -16.5861   14.3944  -22.9586 C   0  0  0  0  0  0  0  0  0  0  0  0
  -17.5552   15.4038  -22.8537 C   0  0  0  0  0  0  0  0  0  0  0  0
  -17.2729   16.6776  -23.3501 C   0  0  0  0  0  0  0  0  0  0  0  0
  -16.0341   16.9354  -23.9391 C   0  0  0  0  0  0  0  0  0  0  0  0
  -15.0896   15.9086  -24.0206 C   0  0  0  0  0  0  0  0  0  0  0  0
  -13.3834   16.2309  -24.8095 Br  0  0  0  0  0  0  0  0  0  0  0  0
  -15.3820   14.6746  -23.5295 N   0  0  0  0  0  0  0  0  0  0  0  0
  -16.5555   12.1403  -25.0279 C   0  0  0  0  0  0  0  0  0  0  0  0
  -16.1860   11.4607  -26.2037 C   0  0  0  0  0  0  0  0  0  0  0  0
  -13.0746   14.9786  -27.5621 C   0  0  0  0  0  0  0  0  0  0  0  0
  1  2  1  0
  2  3  2  0
  3  4  1  0
  4  5  2  0
  5  6  1  0
  6  7  1  0
  6 27  2  0
  7  8  1  0
  8  9  2  0
  9 10  1  0
 10 11  2  0
 11 12  1  0
 12 13  2  0
 13 14  1  0
 14 15  2  0
 15 16  1  0
 15 25  1  0
 16 17  1  0
 17 18  1  0
 18 19  2  0
 19 20  1  0
 20 21  2  0
 21 22  1  0
 22 23  1  0
 22 24  2  0
 24 18  1  0
 25 26  2  0
 26  8  1  0
 26 12  1  0
 27  2  1  0
M  END
$$$$
CHEMBL2424807_plants_07
     RDKit          3D

 27 30  0  0  0  0  0  0  0  0999 V2000
  -15.7633    8.9198  -29.4507 Cl  0  0  0  0  0  0  0  0  0  0  0  0
  -15.9968   10.0555  -28.1343 C   0  0  0  0  0  0  0  0  0  0  0  0
  -17.0550    9.8783  -27.2378 C   0  0  0  0  0  0  0  0  0  0  0  0
  -17.2432   10.7842  -26.1914 C   0  0  0  0  0  0  0  0  0  0  0  0
  -16.3730   11.8669  -26.0350 C   0  0  0  0  0  0  0  0  0  0  0  0
  -15.2967   12.0480  -26.9257 C   0  0  0  0  0  0  0  0  0  0  0  0
  -14.3826   13.1523  -26.7900 N   0  0  0  0  0  0  0  0  0  0  0  0
  -13.2922   13.4020  -27.6882 C   0  0  0  0  0  0  0  0  0  0  0  0
  -12.7085   12.3454  -28.3133 N   0  0  0  0  0  0  0  0  0  0  0  0
  -11.6828   12.5139  -29.1861 C   0  0  0  0  0  0  0  0  0  0  0  0
  -11.2097   13.7576  -29.4504 N   0  0  0  0  0  0  0  0  0  0  0  0
  -11.7370   14.8509  -28.8417 C   0  0  0  0  0  0  0  0  0  0  0  0
  -11.2160   16.1187  -29.1158 C   0  0  0  0  0  0  0  0  0  0  0  0
  -11.7303   17.2440  -28.4692 C   0  0  0  0  0  0  0  0  0  0  0  0
  -12.7700   17.1151  -27.5318 C   0  0  0  0  0  0  0  0  0  0  0  0
  -13.2617   18.2734  -26.8228 N   0  0  0  0  0  0  0  0  0  0  0  0
  -14.7158   18.4297  -26.9915 C   0  0  0  0  0  0  0  0  0  0  0  0
  -15.3333   19.1746  -25.8376 C   0  0  0  0  0  0  0  0  0  0  0  0
  -15.0634   20.5366  -25.6352 C   0  0  0  0  0  0  0  0  0  0  0  0
  -15.6903   21.2096  -24.5850 C   0  0  0  0  0  0  0  0  0  0  0  0
  -16.5786   20.5262  -23.7531 C   0  0  0  0  0  0  0  0  0  0  0  0
  -16.8296   19.1716  -23.9879 C   0  0  0  0  0  0  0  0  0  0  0  0
  -18.0462   18.2115  -22.8764 Br  0  0  0  0  0  0  0  0  0  0  0  0
  -16.2110   18.5334  -25.0173 N   0  0  0  0  0  0  0  0  0  0  0  0
  -13.2915   15.8396  -27.2531 C   0  0  0  0  0  0  0  0  0  0  0  0
  -12.7964   14.7035  -27.9201 C   0  0  0  0  0  0  0  0  0  0  0  0
  -15.1236   11.1383  -27.9808 C   0  0  0  0  0  0  0  0  0  0  0  0
  1  2  1  0
  2  3  2  0
  3  4  1  0
  4  5  2  0
  5  6  1  0
  6  7  1  0
  6 27  2  0
  7  8  1  0
  8  9  2  0
  9 10  1  0
 10 11  2  0
 11 12  1  0
 12 13  2  0
 13 14  1  0
 14 15  2  0
 15 16  1  0
 15 25  1  0
 16 17  1  0
 17 18  1  0
 18 19  2  0
 19 20  1  0
 20 21  2  0
 21 22  1  0
 22 23  1  0
 22 24  2  0
 24 18  1  0
 25 26  2  0
 26  8  1  0
 26 12  1  0
 27  2  1  0
M  END
$$$$
CHEMBL2424807_plants_08
     RDKit          3D

 27 30  0  0  0  0  0  0  0  0999 V2000
  -17.1280   20.2306  -23.8414 Cl  0  0  0  0  0  0  0  0  0  0  0  0
  -15.8829   19.8646  -25.0216 C   0  0  0  0  0  0  0  0  0  0  0  0
  -15.3881   20.8750  -25.8517 C   0  0  0  0  0  0  0  0  0  0  0  0
  -14.3989   20.5832  -26.7938 C   0  0  0  0  0  0  0  0  0  0  0  0
  -13.8985   19.2829  -26.9067 C   0  0  0  0  0  0  0  0  0  0  0  0
  -14.3816   18.2601  -26.0671 C   0  0  0  0  0  0  0  0  0  0  0  0
  -13.8852   16.9115  -26.1581 N   0  0  0  0  0  0  0  0  0  0  0  0
  -12.9831   16.4593  -27.1778 C   0  0  0  0  0  0  0  0  0  0  0  0
  -12.1180   17.3536  -27.7253 N   0  0  0  0  0  0  0  0  0  0  0  0
  -11.2288   16.9875  -28.6830 C   0  0  0  0  0  0  0  0  0  0  0  0
  -11.1899   15.7048  -29.1231 N   0  0  0  0  0  0  0  0  0  0  0  0
  -12.0425   14.7698  -28.6303 C   0  0  0  0  0  0  0  0  0  0  0  0
  -11.9957   13.4604  -29.1171 C   0  0  0  0  0  0  0  0  0  0  0  0
  -12.8909   12.5015  -28.6397 C   0  0  0  0  0  0  0  0  0  0  0  0
  -13.8523   12.8421  -27.6723 C   0  0  0  0  0  0  0  0  0  0  0  0
  -14.8136   11.8628  -27.2217 N   0  0  0  0  0  0  0  0  0  0  0  0
  -16.0438   12.5041  -26.7294 C   0  0  0  0  0  0  0  0  0  0  0  0
  -16.6261   11.7634  -25.5546 C   0  0  0  0  0  0  0  0  0  0  0  0
  -16.8389   10.3777  -25.6131 C   0  0  0  0  0  0  0  0  0  0  0  0
  -17.3344    9.7136  -24.4896 C   0  0  0  0  0  0  0  0  0  0  0  0
  -17.6077   10.4295  -23.3231 C   0  0  0  0  0  0  0  0  0  0  0  0
  -17.3772   11.8076  -23.2976 C   0  0  0  0  0  0  0  0  0  0  0  0
  -17.7299   12.8133  -21.7159 Br  0  0  0  0  0  0  0  0  0  0  0  0
  -16.8922   12.4369  -24.4013 N   0  0  0  0  0  0  0  0  0  0  0  0
  -13.9021   14.1600  -27.1854 C   0  0  0  0  0  0  0  0  0  0  0  0
  -12.9861   15.1260  -27.6423 C   0  0  0  0  0  0  0  0  0  0  0  0
  -15.3842   18.5616  -25.1317 C   0  0  0  0  0  0  0  0  0  0  0  0
  1  2  1  0
  2  3  2  0
  3  4  1  0
  4  5  2  0
  5  6  1  0
  6  7  1  0
  6 27  2  0
  7  8  1  0
  8  9  2  0
  9 10  1  0
 10 11  2  0
 11 12  1  0
 12 13  2  0
 13 14  1  0
 14 15  2  0
 15 16  1  0
 15 25  1  0
 16 17  1  0
 17 18  1  0
 18 19  2  0
 19 20  1  0
 20 21  2  0
 21 22  1  0
 22 23  1  0
 22 24  2  0
 24 18  1  0
 25 26  2  0
 26  8  1  0
 26 12  1  0
 27  2  1  0
M  END
$$$$
CHEMBL2424807_plants_09
     RDKit          3D

 27 30  0  0  0  0  0  0  0  0999 V2000
  -12.3940   21.2111  -24.0572 Cl  0  0  0  0  0  0  0  0  0  0  0  0
  -13.3497   19.7937  -23.6642 C   0  0  0  0  0  0  0  0  0  0  0  0
  -13.8806   19.6430  -22.3795 C   0  0  0  0  0  0  0  0  0  0  0  0
  -14.6391   18.5129  -22.0653 C   0  0  0  0  0  0  0  0  0  0  0  0
  -14.8728   17.5325  -23.0339 C   0  0  0  0  0  0  0  0  0  0  0  0
  -14.3525   17.6804  -24.3347 C   0  0  0  0  0  0  0  0  0  0  0  0
  -14.5770   16.6889  -25.3544 N   0  0  0  0  0  0  0  0  0  0  0  0
  -15.3965   15.5258  -25.1714 C   0  0  0  0  0  0  0  0  0  0  0  0
  -16.3720   15.5588  -24.2253 N   0  0  0  0  0  0  0  0  0  0  0  0
  -17.1915   14.4982  -24.0118 C   0  0  0  0  0  0  0  0  0  0  0  0
  -17.0466   13.3660  -24.7452 N   0  0  0  0  0  0  0  0  0  0  0  0
  -16.0773   13.2639  -25.6905 C   0  0  0  0  0  0  0  0  0  0  0  0
  -15.9360   12.0780  -26.4166 C   0  0  0  0  0  0  0  0  0  0  0  0
  -14.9210   11.9531  -27.3669 C   0  0  0  0  0  0  0  0  0  0  0  0
  -14.0266   13.0126  -27.5987 C   0  0  0  0  0  0  0  0  0  0  0  0
  -12.9430   12.8606  -28.5415 N   0  0  0  0  0  0  0  0  0  0  0  0
  -11.7138   13.5095  -28.0568 C   0  0  0  0  0  0  0  0  0  0  0  0
  -11.6011   14.9278  -28.5503 C   0  0  0  0  0  0  0  0  0  0  0  0
  -11.9218   16.0072  -27.7130 C   0  0  0  0  0  0  0  0  0  0  0  0
  -11.7598   17.3109  -28.1851 C   0  0  0  0  0  0  0  0  0  0  0  0
  -11.2784   17.5278  -29.4771 C   0  0  0  0  0  0  0  0  0  0  0  0
  -10.9622   16.4296  -30.2815 C   0  0  0  0  0  0  0  0  0  0  0  0
  -10.2919   16.6915  -32.0477 Br  0  0  0  0  0  0  0  0  0  0  0  0
  -11.1247   15.1668  -29.8034 N   0  0  0  0  0  0  0  0  0  0  0  0
  -14.1661   14.2042  -26.8657 C   0  0  0  0  0  0  0  0  0  0  0  0
  -15.2029   14.3475  -25.9248 C   0  0  0  0  0  0  0  0  0  0  0  0
  -13.5817   18.8142  -24.6365 C   0  0  0  0  0  0  0  0  0  0  0  0
  1  2  1  0
  2  3  2  0
  3  4  1  0
  4  5  2  0
  5  6  1  0
  6  7  1  0
  6 27  2  0
  7  8  1  0
  8  9  2  0
  9 10  1  0
 10 11  2  0
 11 12  1  0
 12 13  2  0
 13 14  1  0
 14 15  2  0
 15 16  1  0
 15 25  1  0
 16 17  1  0
 17 18  1  0
 18 19  2  0
 19 20  1  0
 20 21  2  0
 21 22  1  0
 22 23  1  0
 22 24  2  0
 24 18  1  0
 25 26  2  0
 26  8  1  0
 26 12  1  0
 27  2  1  0
M  END
$$$$
CHEMBL2424807_plants_10
     RDKit          3D

 27 30  0  0  0  0  0  0  0  0999 V2000
  -10.8923   16.7122  -32.7512 Cl  0  0  0  0  0  0  0  0  0  0  0  0
  -10.5700   17.0571  -31.0617 C   0  0  0  0  0  0  0  0  0  0  0  0
   -9.5152   17.9048  -30.7103 C   0  0  0  0  0  0  0  0  0  0  0  0
   -9.2563   18.1772  -29.3650 C   0  0  0  0  0  0  0  0  0  0  0  0
  -10.0524   17.6071  -28.3674 C   0  0  0  0  0  0  0  0  0  0  0  0
  -11.1251   16.7611  -28.7111 C   0  0  0  0  0  0  0  0  0  0  0  0
  -11.9638   16.1600  -27.7068 N   0  0  0  0  0  0  0  0  0  0  0  0
  -12.6008   14.8835  -27.8571 C   0  0  0  0  0  0  0  0  0  0  0  0
  -12.1438   14.0367  -28.8174 N   0  0  0  0  0  0  0  0  0  0  0  0
  -12.6921   12.8090  -29.0019 C   0  0  0  0  0  0  0  0  0  0  0  0
  -13.7258   12.3998  -28.2243 N   0  0  0  0  0  0  0  0  0  0  0  0
  -14.2405   13.2082  -27.2623 C   0  0  0  0  0  0  0  0  0  0  0  0
  -15.3199   12.7701  -26.4899 C   0  0  0  0  0  0  0  0  0  0  0  0
  -15.8761   13.6078  -25.5215 C   0  0  0  0  0  0  0  0  0  0  0  0
  -15.3638   14.9009  -25.3175 C   0  0  0  0  0  0  0  0  0  0  0  0
  -15.9769   15.7858  -24.3546 N   0  0  0  0  0  0  0  0  0  0  0  0
  -16.5754   16.9607  -25.0090 C   0  0  0  0  0  0  0  0  0  0  0  0
  -15.5334   17.9832  -25.3787 C   0  0  0  0  0  0  0  0  0  0  0  0
  -15.2819   18.2987  -26.7226 C   0  0  0  0  0  0  0  0  0  0  0  0
  -14.3442   19.2862  -27.0297 C   0  0  0  0  0  0  0  0  0  0  0  0
  -13.6723   19.9504  -26.0023 C   0  0  0  0  0  0  0  0  0  0  0  0
  -13.9527   19.6159  -24.6747 C   0  0  0  0  0  0  0  0  0  0  0  0
  -13.0601   20.5122  -23.2473 Br  0  0  0  0  0  0  0  0  0  0  0  0
  -14.8710   18.6526  -24.3951 N   0  0  0  0  0  0  0  0  0  0  0  0
  -14.2806   15.3432  -26.0969 C   0  0  0  0  0  0  0  0  0  0  0  0
  -13.6974   14.4953  -27.0570 C   0  0  0  0  0  0  0  0  0  0  0  0
  -11.3692   16.4847  -30.0656 C   0  0  0  0  0  0  0  0  0  0  0  0
  1  2  1  0
  2  3  2  0
  3  4  1  0
  4  5  2  0
  5  6  1  0
  6  7  1  0
  6 27  2  0
  7  8  1  0
  8  9  2  0
  9 10  1  0
 10 11  2  0
 11 12  1  0
 12 13  2  0
 13 14  1  0
 14 15  2  0
 15 16  1  0
 15 25  1  0
 16 17  1  0
 17 18  1  0
 18 19  2  0
 19 20  1  0
 20 21  2  0
 21 22  1  0
 22 23  1  0
 22 24  2  0
 24 18  1  0
 25 26  2  0
 26  8  1  0
 26 12  1  0
 27  2  1  0
M  END
$$$$
CHEMBL5088102_plants_01
     RDKit          3D

 37 41  0  0  0  0  0  0  0  0999 V2000
  -17.4077    9.2266  -28.1149 C   0  0  0  0  0  0  0  0  0  0  0  0
  -17.6902    9.6953  -26.7979 O   0  0  0  0  0  0  0  0  0  0  0  0
  -18.5661   10.7541  -26.4949 C   0  0  0  0  0  0  0  0  0  0  0  0
  -19.3114   11.3993  -27.5034 C   0  0  0  0  0  0  0  0  0  0  0  0
  -20.1918   12.4364  -27.1813 C   0  0  0  0  0  0  0  0  0  0  0  0
  -20.3445   12.8409  -25.8540 C   0  0  0  0  0  0  0  0  0  0  0  0
  -19.6206   12.2088  -24.8430 C   0  0  0  0  0  0  0  0  0  0  0  0
  -18.7144   11.1711  -25.1462 C   0  0  0  0  0  0  0  0  0  0  0  0
  -18.0252   10.4896  -24.0729 N   0  0  0  0  0  0  0  0  0  0  0  0
  -17.4005   11.4347  -23.1874 C   0  0  0  0  0  0  0  0  0  0  0  0
  -16.9690   11.0372  -21.9599 N   0  0  0  0  0  0  0  0  0  0  0  0
  -16.3846   11.9126  -21.1054 C   0  0  0  0  0  0  0  0  0  0  0  0
  -16.2204   13.2430  -21.4790 C   0  0  0  0  0  0  0  0  0  0  0  0
  -16.6648   13.6488  -22.7471 C   0  0  0  0  0  0  0  0  0  0  0  0
  -16.5104   15.0460  -23.2148 C   0  0  0  0  0  0  0  0  0  0  0  0
  -17.4401   16.0572  -23.0093 C   0  0  0  0  0  0  0  0  0  0  0  0
  -16.9161   17.1615  -23.6455 C   0  0  0  0  0  0  0  0  0  0  0  0
  -15.7075   16.8102  -24.1906 C   0  0  0  0  0  0  0  0  0  0  0  0
  -15.4607   15.5085  -23.9374 N   0  0  0  0  0  0  0  0  0  0  0  0
  -14.9171   17.7379  -25.1097 C   0  0  0  0  0  0  0  0  0  0  0  0
  -15.3988   17.5148  -26.5745 C   0  0  0  0  0  0  0  0  0  0  0  0
  -14.3014   17.8834  -27.5814 C   0  0  0  0  0  0  0  0  0  0  0  0
  -13.1215   16.9892  -27.4569 N   0  0  0  0  0  0  0  0  0  0  0  0
  -11.9490   17.6200  -28.0202 C   0  0  0  0  0  0  0  0  0  0  0  0
  -11.5181   18.7074  -27.5532 O   0  0  0  0  0  0  0  0  0  0  0  0
  -11.2283   16.9957  -29.0960 C   0  0  0  0  0  0  0  0  0  0  0  0
  -10.6170   16.4917  -30.0054 C   0  0  0  0  0  0  0  0  0  0  0  0
   -9.8985   15.9221  -31.0735 N   0  0  0  0  0  0  0  0  0  0  0  0
   -8.7402   15.0704  -30.8126 C   0  0  0  0  0  0  0  0  0  0  0  0
  -10.2919   16.2128  -32.4513 C   0  0  0  0  0  0  0  0  0  0  0  0
  -12.8477   16.5200  -26.0705 C   0  0  0  0  0  0  0  0  0  0  0  0
  -13.3805   17.4800  -24.9887 C   0  0  0  0  0  0  0  0  0  0  0  0
  -15.2130   19.2150  -24.6732 C   0  0  0  0  0  0  0  0  0  0  0  0
  -16.6489   19.4660  -24.4810 N   0  0  0  0  0  0  0  0  0  0  0  0
  -17.4715   18.4953  -23.8258 C   0  0  0  0  0  0  0  0  0  0  0  0
  -18.6392   18.7812  -23.4537 O   0  0  0  0  0  0  0  0  0  0  0  0
  -17.2381   12.7301  -23.5716 N   0  0  0  0  0  0  0  0  0  0  0  0
  1  2  1  0
  2  3  1  0
  3  4  2  0
  4  5  1  0
  5  6  2  0
  6  7  1  0
  7  8  2  0
  8  9  1  0
  8  3  1  0
  9 10  1  0
 10 11  2  0
 11 12  1  0
 12 13  2  0
 13 14  1  0
 14 15  1  0
 14 37  2  0
 15 16  2  0
 16 17  1  0
 17 18  2  0
 18 19  1  0
 18 20  1  0
 19 15  1  0
 20 21  1  0
 20 33  1  0
 21 22  1  0
 22 23  1  0
 23 24  1  0
 23 31  1  0
 24 25  2  0
 24 26  1  0
 26 27  3  0
 27 28  1  0
 28 29  1  0
 28 30  1  0
 31 32  1  0
 32 20  1  0
 33 34  1  0
 34 35  1  0
 35 36  2  0
 35 17  1  0
 37 10  1  0
M  END
$$$$
CHEMBL5088102_plants_02
     RDKit          3D

 37 41  0  0  0  0  0  0  0  0999 V2000
  -16.8889    9.2125  -29.4391 C   0  0  0  0  0  0  0  0  0  0  0  0
  -16.7549    9.6313  -28.0825 O   0  0  0  0  0  0  0  0  0  0  0  0
  -15.9089   10.6665  -27.6433 C   0  0  0  0  0  0  0  0  0  0  0  0
  -14.9274   11.2197  -28.4916 C   0  0  0  0  0  0  0  0  0  0  0  0
  -14.1090   12.2612  -28.0448 C   0  0  0  0  0  0  0  0  0  0  0  0
  -14.2592   12.7671  -26.7524 C   0  0  0  0  0  0  0  0  0  0  0  0
  -15.2297   12.2367  -25.9025 C   0  0  0  0  0  0  0  0  0  0  0  0
  -16.0559   11.1746  -26.3260 C   0  0  0  0  0  0  0  0  0  0  0  0
  -17.0967   10.6868  -25.4485 N   0  0  0  0  0  0  0  0  0  0  0  0
  -17.6272   11.7544  -24.6446 C   0  0  0  0  0  0  0  0  0  0  0  0
  -18.7688   11.5670  -23.9287 N   0  0  0  0  0  0  0  0  0  0  0  0
  -19.2916   12.5618  -23.1704 C   0  0  0  0  0  0  0  0  0  0  0  0
  -18.6592   13.8002  -23.1178 C   0  0  0  0  0  0  0  0  0  0  0  0
  -17.4803   13.9891  -23.8559 C   0  0  0  0  0  0  0  0  0  0  0  0
  -16.7485   15.2771  -23.8361 C   0  0  0  0  0  0  0  0  0  0  0  0
  -17.2065   16.4389  -23.2280 C   0  0  0  0  0  0  0  0  0  0  0  0
  -16.2432   17.3874  -23.4947 C   0  0  0  0  0  0  0  0  0  0  0  0
  -15.2436   16.7923  -24.2211 C   0  0  0  0  0  0  0  0  0  0  0  0
  -15.5563   15.4990  -24.4420 N   0  0  0  0  0  0  0  0  0  0  0  0
  -14.0889   17.5806  -24.8340 C   0  0  0  0  0  0  0  0  0  0  0  0
  -14.5218   18.0804  -26.2447 C   0  0  0  0  0  0  0  0  0  0  0  0
  -13.3049   18.3000  -27.1529 C   0  0  0  0  0  0  0  0  0  0  0  0
  -12.5932   17.0260  -27.4319 N   0  0  0  0  0  0  0  0  0  0  0  0
  -11.2318   17.2883  -27.8416 C   0  0  0  0  0  0  0  0  0  0  0  0
  -10.4331   17.8843  -27.0715 O   0  0  0  0  0  0  0  0  0  0  0  0
  -10.7524   16.8353  -29.1189 C   0  0  0  0  0  0  0  0  0  0  0  0
  -10.3673   16.4414  -30.1918 C   0  0  0  0  0  0  0  0  0  0  0  0
   -9.9330   15.9681  -31.4445 N   0  0  0  0  0  0  0  0  0  0  0  0
  -10.5929   16.4122  -32.6702 C   0  0  0  0  0  0  0  0  0  0  0  0
   -8.8394   15.0004  -31.5167 C   0  0  0  0  0  0  0  0  0  0  0  0
  -12.6224   16.0459  -26.3114 C   0  0  0  0  0  0  0  0  0  0  0  0
  -12.7960   16.7080  -24.9304 C   0  0  0  0  0  0  0  0  0  0  0  0
  -13.7963   18.8084  -23.9030 C   0  0  0  0  0  0  0  0  0  0  0  0
  -15.0205   19.5286  -23.5231 N   0  0  0  0  0  0  0  0  0  0  0  0
  -16.2044   18.8063  -23.1698 C   0  0  0  0  0  0  0  0  0  0  0  0
  -17.1814   19.3882  -22.6309 O   0  0  0  0  0  0  0  0  0  0  0  0
  -16.9914   12.9567  -24.5958 N   0  0  0  0  0  0  0  0  0  0  0  0
  1  2  1  0
  2  3  1  0
  3  4  2  0
  4  5  1  0
  5  6  2  0
  6  7  1  0
  7  8  2  0
  8  9  1  0
  8  3  1  0
  9 10  1  0
 10 11  2  0
 11 12  1  0
 12 13  2  0
 13 14  1  0
 14 15  1  0
 14 37  2  0
 15 16  2  0
 16 17  1  0
 17 18  2  0
 18 19  1  0
 18 20  1  0
 19 15  1  0
 20 21  1  0
 20 33  1  0
 21 22  1  0
 22 23  1  0
 23 24  1  0
 23 31  1  0
 24 25  2  0
 24 26  1  0
 26 27  3  0
 27 28  1  0
 28 29  1  0
 28 30  1  0
 31 32  1  0
 32 20  1  0
 33 34  1  0
 34 35  1  0
 35 36  2  0
 35 17  1  0
 37 10  1  0
M  END
$$$$
CHEMBL5088102_plants_03
     RDKit          3D

 37 41  0  0  0  0  0  0  0  0999 V2000
  -20.1903   12.7026  -26.4519 C   0  0  0  0  0  0  0  0  0  0  0  0
  -19.7853   11.7888  -27.4692 O   0  0  0  0  0  0  0  0  0  0  0  0
  -18.7560   10.8395  -27.3301 C   0  0  0  0  0  0  0  0  0  0  0  0
  -18.0791   10.3233  -28.4545 C   0  0  0  0  0  0  0  0  0  0  0  0
  -17.0454    9.3955  -28.2960 C   0  0  0  0  0  0  0  0  0  0  0  0
  -16.6703    8.9736  -27.0193 C   0  0  0  0  0  0  0  0  0  0  0  0
  -17.3243    9.4793  -25.8958 C   0  0  0  0  0  0  0  0  0  0  0  0
  -18.3809   10.4040  -26.0322 C   0  0  0  0  0  0  0  0  0  0  0  0
  -18.9984   10.9612  -24.8492 N   0  0  0  0  0  0  0  0  0  0  0  0
  -18.0001   11.3862  -23.9055 C   0  0  0  0  0  0  0  0  0  0  0  0
  -17.4916   10.5016  -23.0056 N   0  0  0  0  0  0  0  0  0  0  0  0
  -16.5557   10.8818  -22.1015 C   0  0  0  0  0  0  0  0  0  0  0  0
  -16.1022   12.1973  -22.0831 C   0  0  0  0  0  0  0  0  0  0  0  0
  -16.6275   13.1065  -23.0146 C   0  0  0  0  0  0  0  0  0  0  0  0
  -16.1810   14.5184  -23.0599 C   0  0  0  0  0  0  0  0  0  0  0  0
  -16.9170   15.5973  -22.5874 C   0  0  0  0  0  0  0  0  0  0  0  0
  -16.1512   16.7068  -22.8726 C   0  0  0  0  0  0  0  0  0  0  0  0
  -14.9941   16.2865  -23.4772 C   0  0  0  0  0  0  0  0  0  0  0  0
  -15.0143   14.9438  -23.6039 N   0  0  0  0  0  0  0  0  0  0  0  0
  -13.9802   17.2554  -24.0801 C   0  0  0  0  0  0  0  0  0  0  0  0
  -14.3893   17.5491  -25.5544 C   0  0  0  0  0  0  0  0  0  0  0  0
  -13.1733   17.9557  -26.3969 C   0  0  0  0  0  0  0  0  0  0  0  0
  -12.1938   16.8450  -26.5160 N   0  0  0  0  0  0  0  0  0  0  0  0
  -10.8867   17.3597  -26.8573 C   0  0  0  0  0  0  0  0  0  0  0  0
  -10.2941   18.1655  -26.0920 O   0  0  0  0  0  0  0  0  0  0  0  0
  -10.2208   16.9279  -28.0560 C   0  0  0  0  0  0  0  0  0  0  0  0
   -9.6722   16.5817  -29.0727 C   0  0  0  0  0  0  0  0  0  0  0  0
   -9.0421   16.1919  -30.2697 N   0  0  0  0  0  0  0  0  0  0  0  0
   -9.4907   16.7344  -31.5502 C   0  0  0  0  0  0  0  0  0  0  0  0
   -7.9569   15.2128  -30.2346 C   0  0  0  0  0  0  0  0  0  0  0  0
  -12.1125   15.9642  -25.3182 C   0  0  0  0  0  0  0  0  0  0  0  0
  -12.5318   16.6722  -24.0149 C   0  0  0  0  0  0  0  0  0  0  0  0
  -14.0245   18.5812  -23.2432 C   0  0  0  0  0  0  0  0  0  0  0  0
  -15.3979   19.0508  -23.0087 N   0  0  0  0  0  0  0  0  0  0  0  0
  -16.4325   18.1213  -22.6716 C   0  0  0  0  0  0  0  0  0  0  0  0
  -17.5494   18.5200  -22.2508 O   0  0  0  0  0  0  0  0  0  0  0  0
  -17.5595   12.6738  -23.9069 N   0  0  0  0  0  0  0  0  0  0  0  0
  1  2  1  0
  2  3  1  0
  3  4  2  0
  4  5  1  0
  5  6  2  0
  6  7  1  0
  7  8  2  0
  8  9  1  0
  8  3  1  0
  9 10  1  0
 10 11  2  0
 11 12  1  0
 12 13  2  0
 13 14  1  0
 14 15  1  0
 14 37  2  0
 15 16  2  0
 16 17  1  0
 17 18  2  0
 18 19  1  0
 18 20  1  0
 19 15  1  0
 20 21  1  0
 20 33  1  0
 21 22  1  0
 22 23  1  0
 23 24  1  0
 23 31  1  0
 24 25  2  0
 24 26  1  0
 26 27  3  0
 27 28  1  0
 28 29  1  0
 28 30  1  0
 31 32  1  0
 32 20  1  0
 33 34  1  0
 34 35  1  0
 35 36  2  0
 35 17  1  0
 37 10  1  0
M  END
$$$$
CHEMBL5088102_plants_04
     RDKit          3D

 37 41  0  0  0  0  0  0  0  0999 V2000
  -14.5276   19.4994  -22.0718 C   0  0  0  0  0  0  0  0  0  0  0  0
  -13.9610   18.6274  -23.0478 O   0  0  0  0  0  0  0  0  0  0  0  0
  -13.9565   18.8710  -24.4337 C   0  0  0  0  0  0  0  0  0  0  0  0
  -12.8597   18.4996  -25.2388 C   0  0  0  0  0  0  0  0  0  0  0  0
  -12.8810   18.7314  -26.6172 C   0  0  0  0  0  0  0  0  0  0  0  0
  -13.9931   19.3305  -27.2113 C   0  0  0  0  0  0  0  0  0  0  0  0
  -15.0895   19.6975  -26.4311 C   0  0  0  0  0  0  0  0  0  0  0  0
  -15.0838   19.4883  -25.0360 C   0  0  0  0  0  0  0  0  0  0  0  0
  -16.2588   19.8186  -24.2603 N   0  0  0  0  0  0  0  0  0  0  0  0
  -16.8919   18.6274  -23.7625 C   0  0  0  0  0  0  0  0  0  0  0  0
  -17.7888   18.7069  -22.7425 N   0  0  0  0  0  0  0  0  0  0  0  0
  -18.3918   17.5963  -22.2517 C   0  0  0  0  0  0  0  0  0  0  0  0
  -18.0942   16.3487  -22.7912 C   0  0  0  0  0  0  0  0  0  0  0  0
  -17.1701   16.2709  -23.8450 C   0  0  0  0  0  0  0  0  0  0  0  0
  -16.8161   14.9775  -24.4748 C   0  0  0  0  0  0  0  0  0  0  0  0
  -17.2514   13.7353  -24.0314 C   0  0  0  0  0  0  0  0  0  0  0  0
  -16.6489   12.8232  -24.8704 C   0  0  0  0  0  0  0  0  0  0  0  0
  -15.8988   13.5136  -25.7880 C   0  0  0  0  0  0  0  0  0  0  0  0
  -15.9905   14.8363  -25.5408 N   0  0  0  0  0  0  0  0  0  0  0  0
  -14.9616   12.8215  -26.7744 C   0  0  0  0  0  0  0  0  0  0  0  0
  -13.5712   12.6402  -26.0952 C   0  0  0  0  0  0  0  0  0  0  0  0
  -12.4499   12.5623  -27.1394 C   0  0  0  0  0  0  0  0  0  0  0  0
  -12.3129   13.8363  -27.8915 N   0  0  0  0  0  0  0  0  0  0  0  0
  -11.6412   13.6084  -29.1512 C   0  0  0  0  0  0  0  0  0  0  0  0
  -12.1371   12.8348  -30.0125 O   0  0  0  0  0  0  0  0  0  0  0  0
  -10.4164   14.2942  -29.4614 C   0  0  0  0  0  0  0  0  0  0  0  0
   -9.3887   14.8781  -29.7014 C   0  0  0  0  0  0  0  0  0  0  0  0
   -8.1900   15.5683  -29.9630 N   0  0  0  0  0  0  0  0  0  0  0  0
   -8.1085   17.0118  -29.7513 C   0  0  0  0  0  0  0  0  0  0  0  0
   -7.0319   14.8427  -30.4826 C   0  0  0  0  0  0  0  0  0  0  0  0
  -13.5931   14.5658  -28.1060 C   0  0  0  0  0  0  0  0  0  0  0  0
  -14.8267   13.6418  -28.0977 C   0  0  0  0  0  0  0  0  0  0  0  0
  -15.5725   11.4177  -27.1152 C   0  0  0  0  0  0  0  0  0  0  0  0
  -16.0001   10.6855  -25.9142 N   0  0  0  0  0  0  0  0  0  0  0  0
  -16.6782   11.3675  -24.8544 C   0  0  0  0  0  0  0  0  0  0  0  0
  -17.2459   10.7278  -23.9313 O   0  0  0  0  0  0  0  0  0  0  0  0
  -16.5976   17.4156  -24.3076 N   0  0  0  0  0  0  0  0  0  0  0  0
  1  2  1  0
  2  3  1  0
  3  4  2  0
  4  5  1  0
  5  6  2  0
  6  7  1  0
  7  8  2  0
  8  9  1  0
  8  3  1  0
  9 10  1  0
 10 11  2  0
 11 12  1  0
 12 13  2  0
 13 14  1  0
 14 15  1  0
 14 37  2  0
 15 16  2  0
 16 17  1  0
 17 18  2  0
 18 19  1  0
 18 20  1  0
 19 15  1  0
 20 21  1  0
 20 33  1  0
 21 22  1  0
 22 23  1  0
 23 24  1  0
 23 31  1  0
 24 25  2  0
 24 26  1  0
 26 27  3  0
 27 28  1  0
 28 29  1  0
 28 30  1  0
 31 32  1  0
 32 20  1  0
 33 34  1  0
 34 35  1  0
 35 36  2  0
 35 17  1  0
 37 10  1  0
M  END
$$$$
CHEMBL5088102_plants_05
     RDKit          3D

 37 41  0  0  0  0  0  0  0  0999 V2000
  -15.5534   10.4090  -31.4996 C   0  0  0  0  0  0  0  0  0  0  0  0
  -15.7925   10.4827  -30.0956 O   0  0  0  0  0  0  0  0  0  0  0  0
  -14.9030   11.0417  -29.1595 C   0  0  0  0  0  0  0  0  0  0  0  0
  -13.8955   11.9454  -29.5559 C   0  0  0  0  0  0  0  0  0  0  0  0
  -13.0332   12.5063  -28.6092 C   0  0  0  0  0  0  0  0  0  0  0  0
  -13.1649   12.1789  -27.2586 C   0  0  0  0  0  0  0  0  0  0  0  0
  -14.1604   11.2923  -26.8481 C   0  0  0  0  0  0  0  0  0  0  0  0
  -15.0315   10.7015  -27.7874 C   0  0  0  0  0  0  0  0  0  0  0  0
  -16.0954    9.8365  -27.3280 N   0  0  0  0  0  0  0  0  0  0  0  0
  -16.6004   10.2806  -26.0571 C   0  0  0  0  0  0  0  0  0  0  0  0
  -17.2997    9.4246  -25.2639 N   0  0  0  0  0  0  0  0  0  0  0  0
  -17.7921    9.8237  -24.0655 C   0  0  0  0  0  0  0  0  0  0  0  0
  -17.5866   11.1295  -23.6305 C   0  0  0  0  0  0  0  0  0  0  0  0
  -16.8626   12.0091  -24.4505 C   0  0  0  0  0  0  0  0  0  0  0  0
  -16.5957   13.4087  -24.0445 C   0  0  0  0  0  0  0  0  0  0  0  0
  -17.4517   14.1874  -23.2764 C   0  0  0  0  0  0  0  0  0  0  0  0
  -16.8347   15.4161  -23.1852 C   0  0  0  0  0  0  0  0  0  0  0  0
  -15.6449   15.3510  -23.8645 C   0  0  0  0  0  0  0  0  0  0  0  0
  -15.5005   14.1228  -24.4028 N   0  0  0  0  0  0  0  0  0  0  0  0
  -14.7697   16.5767  -24.1132 C   0  0  0  0  0  0  0  0  0  0  0  0
  -15.2374   17.2621  -25.4318 C   0  0  0  0  0  0  0  0  0  0  0  0
  -14.0960   18.0575  -26.0785 C   0  0  0  0  0  0  0  0  0  0  0  0
  -12.9883   17.1687  -26.5152 N   0  0  0  0  0  0  0  0  0  0  0  0
  -11.7614   17.9212  -26.6501 C   0  0  0  0  0  0  0  0  0  0  0  0
  -11.2603   18.5152  -25.6590 O   0  0  0  0  0  0  0  0  0  0  0  0
  -11.0677   17.9696  -27.9084 C   0  0  0  0  0  0  0  0  0  0  0  0
  -10.5031   18.0007  -28.9737 C   0  0  0  0  0  0  0  0  0  0  0  0
   -9.8598   18.0270  -30.2255 N   0  0  0  0  0  0  0  0  0  0  0  0
  -10.5660   18.5153  -31.4079 C   0  0  0  0  0  0  0  0  0  0  0  0
   -8.4903   17.5304  -30.3497 C   0  0  0  0  0  0  0  0  0  0  0  0
  -12.7777   15.9759  -25.6493 C   0  0  0  0  0  0  0  0  0  0  0  0
  -13.2592   16.1855  -24.2002 C   0  0  0  0  0  0  0  0  0  0  0  0
  -14.9638   17.5599  -22.9067 C   0  0  0  0  0  0  0  0  0  0  0  0
  -16.3806   17.7600  -22.5686 N   0  0  0  0  0  0  0  0  0  0  0  0
  -17.2859   16.6516  -22.5606 C   0  0  0  0  0  0  0  0  0  0  0  0
  -18.4362   16.7586  -22.0617 O   0  0  0  0  0  0  0  0  0  0  0  0
  -16.3823   11.5581  -25.6414 N   0  0  0  0  0  0  0  0  0  0  0  0
  1  2  1  0
  2  3  1  0
  3  4  2  0
  4  5  1  0
  5  6  2  0
  6  7  1  0
  7  8  2  0
  8  9  1  0
  8  3  1  0
  9 10  1  0
 10 11  2  0
 11 12  1  0
 12 13  2  0
 13 14  1  0
 14 15  1  0
 14 37  2  0
 15 16  2  0
 16 17  1  0
 17 18  2  0
 18 19  1  0
 18 20  1  0
 19 15  1  0
 20 21  1  0
 20 33  1  0
 21 22  1  0
 22 23  1  0
 23 24  1  0
 23 31  1  0
 24 25  2  0
 24 26  1  0
 26 27  3  0
 27 28  1  0
 28 29  1  0
 28 30  1  0
 31 32  1  0
 32 20  1  0
 33 34  1  0
 34 35  1  0
 35 36  2  0
 35 17  1  0
 37 10  1  0
M  END
$$$$
CHEMBL5088102_plants_06
     RDKit          3D

 37 41  0  0  0  0  0  0  0  0999 V2000
  -14.6232   13.1926  -26.8614 C   0  0  0  0  0  0  0  0  0  0  0  0
  -15.7976   12.5625  -27.3689 O   0  0  0  0  0  0  0  0  0  0  0  0
  -15.8479   11.2508  -27.8759 C   0  0  0  0  0  0  0  0  0  0  0  0
  -14.6721   10.4991  -28.0799 C   0  0  0  0  0  0  0  0  0  0  0  0
  -14.7424    9.1902  -28.5657 C   0  0  0  0  0  0  0  0  0  0  0  0
  -15.9810    8.6124  -28.8500 C   0  0  0  0  0  0  0  0  0  0  0  0
  -17.1543    9.3389  -28.6472 C   0  0  0  0  0  0  0  0  0  0  0  0
  -17.1070   10.6668  -28.1733 C   0  0  0  0  0  0  0  0  0  0  0  0
  -18.3403   11.3748  -27.9106 N   0  0  0  0  0  0  0  0  0  0  0  0
  -18.4234   11.7571  -26.5269 C   0  0  0  0  0  0  0  0  0  0  0  0
  -19.1762   11.0260  -25.6612 N   0  0  0  0  0  0  0  0  0  0  0  0
  -19.2757   11.3723  -24.3542 C   0  0  0  0  0  0  0  0  0  0  0  0
  -18.6025   12.4940  -23.8800 C   0  0  0  0  0  0  0  0  0  0  0  0
  -17.8249   13.2446  -24.7757 C   0  0  0  0  0  0  0  0  0  0  0  0
  -17.0717   14.4424  -24.3366 C   0  0  0  0  0  0  0  0  0  0  0  0
  -17.5365   15.3789  -23.4221 C   0  0  0  0  0  0  0  0  0  0  0  0
  -16.5450   16.3331  -23.3500 C   0  0  0  0  0  0  0  0  0  0  0  0
  -15.5236   15.9553  -24.1839 C   0  0  0  0  0  0  0  0  0  0  0  0
  -15.8489   14.8003  -24.7998 N   0  0  0  0  0  0  0  0  0  0  0  0
  -14.3278   16.8559  -24.4827 C   0  0  0  0  0  0  0  0  0  0  0  0
  -14.6859   17.7731  -25.6901 C   0  0  0  0  0  0  0  0  0  0  0  0
  -13.4244   18.2196  -26.4406 C   0  0  0  0  0  0  0  0  0  0  0  0
  -12.7235   17.0687  -27.0662 N   0  0  0  0  0  0  0  0  0  0  0  0
  -11.3401   17.4002  -27.3237 C   0  0  0  0  0  0  0  0  0  0  0  0
  -10.5674   17.7095  -26.3785 O   0  0  0  0  0  0  0  0  0  0  0  0
  -10.8103   17.3411  -28.6588 C   0  0  0  0  0  0  0  0  0  0  0  0
  -10.3576   17.2714  -29.7745 C   0  0  0  0  0  0  0  0  0  0  0  0
   -9.8209   17.1721  -31.0722 N   0  0  0  0  0  0  0  0  0  0  0  0
   -9.4852   15.8656  -31.6338 C   0  0  0  0  0  0  0  0  0  0  0  0
   -9.5655   18.3848  -31.8479 C   0  0  0  0  0  0  0  0  0  0  0  0
  -12.8223   15.7964  -26.2991 C   0  0  0  0  0  0  0  0  0  0  0  0
  -13.0477   16.0137  -24.7899 C   0  0  0  0  0  0  0  0  0  0  0  0
  -14.0566   17.7339  -23.2117 C   0  0  0  0  0  0  0  0  0  0  0  0
  -15.2840   18.3428  -22.6783 N   0  0  0  0  0  0  0  0  0  0  0  0
  -16.4958   17.5847  -22.6076 C   0  0  0  0  0  0  0  0  0  0  0  0
  -17.4861   18.0060  -21.9555 O   0  0  0  0  0  0  0  0  0  0  0  0
  -17.7508   12.8512  -26.0765 N   0  0  0  0  0  0  0  0  0  0  0  0
  1  2  1  0
  2  3  1  0
  3  4  2  0
  4  5  1  0
  5  6  2  0
  6  7  1  0
  7  8  2  0
  8  9  1  0
  8  3  1  0
  9 10  1  0
 10 11  2  0
 11 12  1  0
 12 13  2  0
 13 14  1  0
 14 15  1  0
 14 37  2  0
 15 16  2  0
 16 17  1  0
 17 18  2  0
 18 19  1  0
 18 20  1  0
 19 15  1  0
 20 21  1  0
 20 33  1  0
 21 22  1  0
 22 23  1  0
 23 24  1  0
 23 31  1  0
 24 25  2  0
 24 26  1  0
 26 27  3  0
 27 28  1  0
 28 29  1  0
 28 30  1  0
 31 32  1  0
 32 20  1  0
 33 34  1  0
 34 35  1  0
 35 36  2  0
 35 17  1  0
 37 10  1  0
M  END
$$$$
CHEMBL5088102_plants_07
     RDKit          3D

 37 41  0  0  0  0  0  0  0  0999 V2000
  -15.2909   18.9797  -21.3592 C   0  0  0  0  0  0  0  0  0  0  0  0
  -15.9466   17.8672  -21.9644 O   0  0  0  0  0  0  0  0  0  0  0  0
  -15.9163   17.5702  -23.3395 C   0  0  0  0  0  0  0  0  0  0  0  0
  -14.8857   18.0557  -24.1709 C   0  0  0  0  0  0  0  0  0  0  0  0
  -14.8608   17.7340  -25.5311 C   0  0  0  0  0  0  0  0  0  0  0  0
  -15.8566   16.9237  -26.0793 C   0  0  0  0  0  0  0  0  0  0  0  0
  -16.8793   16.4289  -25.2700 C   0  0  0  0  0  0  0  0  0  0  0  0
  -16.9340   16.7535  -23.8983 C   0  0  0  0  0  0  0  0  0  0  0  0
  -17.9679   16.1751  -23.0689 N   0  0  0  0  0  0  0  0  0  0  0  0
  -17.9599   14.7409  -23.1709 C   0  0  0  0  0  0  0  0  0  0  0  0
  -18.5194   13.9840  -22.1886 N   0  0  0  0  0  0  0  0  0  0  0  0
  -18.5163   12.6301  -22.2596 C   0  0  0  0  0  0  0  0  0  0  0  0
  -17.9316   11.9934  -23.3501 C   0  0  0  0  0  0  0  0  0  0  0  0
  -17.3574   12.7777  -24.3627 C   0  0  0  0  0  0  0  0  0  0  0  0
  -16.7294   12.1669  -25.5575 C   0  0  0  0  0  0  0  0  0  0  0  0
  -16.7664   10.8134  -25.8670 C   0  0  0  0  0  0  0  0  0  0  0  0
  -16.0242   10.6886  -27.0212 C   0  0  0  0  0  0  0  0  0  0  0  0
  -15.5823   11.9351  -27.3849 C   0  0  0  0  0  0  0  0  0  0  0  0
  -16.0044   12.8436  -26.4818 N   0  0  0  0  0  0  0  0  0  0  0  0
  -14.5935   12.1584  -28.5262 C   0  0  0  0  0  0  0  0  0  0  0  0
  -13.1467   12.0473  -27.9592 C   0  0  0  0  0  0  0  0  0  0  0  0
  -12.1536   12.8466  -28.8128 C   0  0  0  0  0  0  0  0  0  0  0  0
  -12.4408   14.3036  -28.7666 N   0  0  0  0  0  0  0  0  0  0  0  0
  -11.8587   14.9688  -29.9105 C   0  0  0  0  0  0  0  0  0  0  0  0
  -12.2080   14.6585  -31.0801 O   0  0  0  0  0  0  0  0  0  0  0  0
  -10.9018   16.0268  -29.7324 C   0  0  0  0  0  0  0  0  0  0  0  0
  -10.1096   16.9206  -29.5648 C   0  0  0  0  0  0  0  0  0  0  0  0
   -9.1956   17.9701  -29.3530 N   0  0  0  0  0  0  0  0  0  0  0  0
   -9.5330   19.3343  -29.7532 C   0  0  0  0  0  0  0  0  0  0  0  0
   -7.8886   17.6876  -28.7617 C   0  0  0  0  0  0  0  0  0  0  0  0
  -13.8854   14.6430  -28.6434 C   0  0  0  0  0  0  0  0  0  0  0  0
  -14.8156   13.5492  -29.2036 C   0  0  0  0  0  0  0  0  0  0  0  0
  -14.8315   11.0365  -29.5961 C   0  0  0  0  0  0  0  0  0  0  0  0
  -14.9255    9.6984  -28.9942 N   0  0  0  0  0  0  0  0  0  0  0  0
  -15.6563    9.5013  -27.7796 C   0  0  0  0  0  0  0  0  0  0  0  0
  -15.9366    8.3438  -27.3730 O   0  0  0  0  0  0  0  0  0  0  0  0
  -17.3929   14.1334  -24.2488 N   0  0  0  0  0  0  0  0  0  0  0  0
  1  2  1  0
  2  3  1  0
  3  4  2  0
  4  5  1  0
  5  6  2  0
  6  7  1  0
  7  8  2  0
  8  9  1  0
  8  3  1  0
  9 10  1  0
 10 11  2  0
 11 12  1  0
 12 13  2  0
 13 14  1  0
 14 15  1  0
 14 37  2  0
 15 16  2  0
 16 17  1  0
 17 18  2  0
 18 19  1  0
 18 20  1  0
 19 15  1  0
 20 21  1  0
 20 33  1  0
 21 22  1  0
 22 23  1  0
 23 24  1  0
 23 31  1  0
 24 25  2  0
 24 26  1  0
 26 27  3  0
 27 28  1  0
 28 29  1  0
 28 30  1  0
 31 32  1  0
 32 20  1  0
 33 34  1  0
 34 35  1  0
 35 36  2  0
 35 17  1  0
 37 10  1  0
M  END
$$$$
CHEMBL5088102_plants_08
     RDKit          3D

 37 41  0  0  0  0  0  0  0  0999 V2000
  -16.8107    9.5113  -23.5477 C   0  0  0  0  0  0  0  0  0  0  0  0
  -17.4505   10.1617  -24.6438 O   0  0  0  0  0  0  0  0  0  0  0  0
  -16.8671   11.1766  -25.4248 C   0  0  0  0  0  0  0  0  0  0  0  0
  -15.7476   10.9188  -26.2427 C   0  0  0  0  0  0  0  0  0  0  0  0
  -15.1933   11.9346  -27.0271 C   0  0  0  0  0  0  0  0  0  0  0  0
  -15.7473   13.2158  -27.0107 C   0  0  0  0  0  0  0  0  0  0  0  0
  -16.8591   13.4864  -26.2131 C   0  0  0  0  0  0  0  0  0  0  0  0
  -17.4253   12.4815  -25.4009 C   0  0  0  0  0  0  0  0  0  0  0  0
  -18.6162   12.7713  -24.6334 N   0  0  0  0  0  0  0  0  0  0  0  0
  -18.4013   13.8971  -23.7651 C   0  0  0  0  0  0  0  0  0  0  0  0
  -18.8714   13.8737  -22.4886 N   0  0  0  0  0  0  0  0  0  0  0  0
  -18.6876   14.9269  -21.6549 C   0  0  0  0  0  0  0  0  0  0  0  0
  -18.0102   16.0569  -22.1027 C   0  0  0  0  0  0  0  0  0  0  0  0
  -17.5246   16.0764  -23.4196 C   0  0  0  0  0  0  0  0  0  0  0  0
  -16.7838   17.2410  -23.9580 C   0  0  0  0  0  0  0  0  0  0  0  0
  -17.2825   18.5357  -24.0228 C   0  0  0  0  0  0  0  0  0  0  0  0
  -16.2889   19.2733  -24.6290 C   0  0  0  0  0  0  0  0  0  0  0  0
  -15.2341   18.4375  -24.8936 C   0  0  0  0  0  0  0  0  0  0  0  0
  -15.5393   17.1864  -24.4928 N   0  0  0  0  0  0  0  0  0  0  0  0
  -14.0202   18.8753  -25.7092 C   0  0  0  0  0  0  0  0  0  0  0  0
  -14.3182   18.6242  -27.2176 C   0  0  0  0  0  0  0  0  0  0  0  0
  -13.0217   18.4238  -28.0131 C   0  0  0  0  0  0  0  0  0  0  0  0
  -12.3013   17.1967  -27.5857 N   0  0  0  0  0  0  0  0  0  0  0  0
  -10.9057   17.2772  -27.9541 C   0  0  0  0  0  0  0  0  0  0  0  0
  -10.1737   18.1959  -27.4998 O   0  0  0  0  0  0  0  0  0  0  0  0
  -10.3174   16.2849  -28.8120 C   0  0  0  0  0  0  0  0  0  0  0  0
   -9.8211   15.4678  -29.5472 C   0  0  0  0  0  0  0  0  0  0  0  0
   -9.2402   14.5283  -30.4199 N   0  0  0  0  0  0  0  0  0  0  0  0
   -9.0967   14.8323  -31.8419 C   0  0  0  0  0  0  0  0  0  0  0  0
   -8.8108   13.2282  -29.9071 C   0  0  0  0  0  0  0  0  0  0  0  0
  -12.4425   16.8718  -26.1395 C   0  0  0  0  0  0  0  0  0  0  0  0
  -12.7333   18.1076  -25.2655 C   0  0  0  0  0  0  0  0  0  0  0  0
  -13.8000   20.4081  -25.4600 C   0  0  0  0  0  0  0  0  0  0  0  0
  -15.0458   21.1801  -25.5771 N   0  0  0  0  0  0  0  0  0  0  0  0
  -16.2645   20.6750  -25.0224 C   0  0  0  0  0  0  0  0  0  0  0  0
  -17.2800   21.4101  -24.9134 O   0  0  0  0  0  0  0  0  0  0  0  0
  -17.7280   14.9909  -24.2149 N   0  0  0  0  0  0  0  0  0  0  0  0
  1  2  1  0
  2  3  1  0
  3  4  2  0
  4  5  1  0
  5  6  2  0
  6  7  1  0
  7  8  2  0
  8  9  1  0
  8  3  1  0
  9 10  1  0
 10 11  2  0
 11 12  1  0
 12 13  2  0
 13 14  1  0
 14 15  1  0
 14 37  2  0
 15 16  2  0
 16 17  1  0
 17 18  2  0
 18 19  1  0
 18 20  1  0
 19 15  1  0
 20 21  1  0
 20 33  1  0
 21 22  1  0
 22 23  1  0
 23 24  1  0
 23 31  1  0
 24 25  2  0
 24 26  1  0
 26 27  3  0
 27 28  1  0
 28 29  1  0
 28 30  1  0
 31 32  1  0
 32 20  1  0
 33 34  1  0
 34 35  1  0
 35 36  2  0
 35 17  1  0
 37 10  1  0
M  END
$$$$
CHEMBL5088102_plants_09
     RDKit          3D

 37 41  0  0  0  0  0  0  0  0999 V2000
  -15.3508   16.1734  -26.1905 C   0  0  0  0  0  0  0  0  0  0  0  0
  -15.5524   17.4877  -25.6751 O   0  0  0  0  0  0  0  0  0  0  0  0
  -16.2139   17.7826  -24.4685 C   0  0  0  0  0  0  0  0  0  0  0  0
  -16.8702   16.7772  -23.7287 C   0  0  0  0  0  0  0  0  0  0  0  0
  -17.5053   17.0848  -22.5219 C   0  0  0  0  0  0  0  0  0  0  0  0
  -17.4918   18.3930  -22.0351 C   0  0  0  0  0  0  0  0  0  0  0  0
  -16.8412   19.3984  -22.7503 C   0  0  0  0  0  0  0  0  0  0  0  0
  -16.2076   19.1147  -23.9783 C   0  0  0  0  0  0  0  0  0  0  0  0
  -15.4854   20.1614  -24.6670 N   0  0  0  0  0  0  0  0  0  0  0  0
  -14.0737   19.8883  -24.6713 C   0  0  0  0  0  0  0  0  0  0  0  0
  -13.2513   20.5342  -23.8010 N   0  0  0  0  0  0  0  0  0  0  0  0
  -11.9162   20.2987  -23.7926 C   0  0  0  0  0  0  0  0  0  0  0  0
  -11.3668   19.3847  -24.6866 C   0  0  0  0  0  0  0  0  0  0  0  0
  -12.2187   18.7186  -25.5814 C   0  0  0  0  0  0  0  0  0  0  0  0
  -11.7036   17.7240  -26.5511 C   0  0  0  0  0  0  0  0  0  0  0  0
  -10.7690   17.9948  -27.5423 C   0  0  0  0  0  0  0  0  0  0  0  0
  -10.6217   16.8100  -28.2302 C   0  0  0  0  0  0  0  0  0  0  0  0
  -11.4325   15.8704  -27.6463 C   0  0  0  0  0  0  0  0  0  0  0  0
  -12.1067   16.4316  -26.6218 N   0  0  0  0  0  0  0  0  0  0  0  0
  -11.6502   14.4832  -28.2451 C   0  0  0  0  0  0  0  0  0  0  0  0
  -12.8311   14.5590  -29.2584 C   0  0  0  0  0  0  0  0  0  0  0  0
  -13.5162   13.1952  -29.4149 C   0  0  0  0  0  0  0  0  0  0  0  0
  -14.1625   12.7590  -28.1502 N   0  0  0  0  0  0  0  0  0  0  0  0
  -14.3556   11.3263  -28.1506 C   0  0  0  0  0  0  0  0  0  0  0  0
  -13.3709   10.5458  -28.2374 O   0  0  0  0  0  0  0  0  0  0  0  0
  -15.6717   10.7656  -28.0087 C   0  0  0  0  0  0  0  0  0  0  0  0
  -16.7775   10.3048  -27.8699 C   0  0  0  0  0  0  0  0  0  0  0  0
  -18.0691    9.7748  -27.6890 N   0  0  0  0  0  0  0  0  0  0  0  0
  -18.5042    8.6121  -28.4596 C   0  0  0  0  0  0  0  0  0  0  0  0
  -18.9918   10.4126  -26.7511 C   0  0  0  0  0  0  0  0  0  0  0  0
  -13.4524   13.1906  -26.9147 C   0  0  0  0  0  0  0  0  0  0  0  0
  -11.9448   13.4262  -27.1323 C   0  0  0  0  0  0  0  0  0  0  0  0
  -10.3352   14.0697  -28.9931 C   0  0  0  0  0  0  0  0  0  0  0  0
   -9.8224   15.1409  -29.8598 N   0  0  0  0  0  0  0  0  0  0  0  0
   -9.8272   16.4996  -29.4103 C   0  0  0  0  0  0  0  0  0  0  0  0
   -9.1948   17.3906  -30.0347 O   0  0  0  0  0  0  0  0  0  0  0  0
  -13.5530   18.9841  -25.5451 N   0  0  0  0  0  0  0  0  0  0  0  0
  1  2  1  0
  2  3  1  0
  3  4  2  0
  4  5  1  0
  5  6  2  0
  6  7  1  0
  7  8  2  0
  8  9  1  0
  8  3  1  0
  9 10  1  0
 10 11  2  0
 11 12  1  0
 12 13  2  0
 13 14  1  0
 14 15  1  0
 14 37  2  0
 15 16  2  0
 16 17  1  0
 17 18  2  0
 18 19  1  0
 18 20  1  0
 19 15  1  0
 20 21  1  0
 20 33  1  0
 21 22  1  0
 22 23  1  0
 23 24  1  0
 23 31  1  0
 24 25  2  0
 24 26  1  0
 26 27  3  0
 27 28  1  0
 28 29  1  0
 28 30  1  0
 31 32  1  0
 32 20  1  0
 33 34  1  0
 34 35  1  0
 35 36  2  0
 35 17  1  0
 37 10  1  0
M  END
$$$$
CHEMBL5088102_plants_10
     RDKit          3D

 37 41  0  0  0  0  0  0  0  0999 V2000
  -13.8339   13.3248  -31.4966 C   0  0  0  0  0  0  0  0  0  0  0  0
  -12.6024   12.9160  -30.9048 O   0  0  0  0  0  0  0  0  0  0  0  0
  -12.3339   12.9289  -29.5235 C   0  0  0  0  0  0  0  0  0  0  0  0
  -13.1288   12.1982  -28.6162 C   0  0  0  0  0  0  0  0  0  0  0  0
  -12.8352   12.2068  -27.2495 C   0  0  0  0  0  0  0  0  0  0  0  0
  -11.7469   12.9376  -26.7698 C   0  0  0  0  0  0  0  0  0  0  0  0
  -10.9458   13.6602  -27.6539 C   0  0  0  0  0  0  0  0  0  0  0  0
  -11.2325   13.6794  -29.0350 C   0  0  0  0  0  0  0  0  0  0  0  0
  -10.3486   14.3835  -29.9374 N   0  0  0  0  0  0  0  0  0  0  0  0
  -10.5008   15.8060  -29.7931 C   0  0  0  0  0  0  0  0  0  0  0  0
   -9.8009   16.6520  -30.5964 N   0  0  0  0  0  0  0  0  0  0  0  0
   -9.9224   17.9966  -30.4729 C   0  0  0  0  0  0  0  0  0  0  0  0
  -10.7729   18.5313  -29.5099 C   0  0  0  0  0  0  0  0  0  0  0  0
  -11.4951   17.6553  -28.6845 C   0  0  0  0  0  0  0  0  0  0  0  0
  -12.4276   18.1553  -27.6475 C   0  0  0  0  0  0  0  0  0  0  0  0
  -12.3305   19.3936  -27.0259 C   0  0  0  0  0  0  0  0  0  0  0  0
  -13.3603   19.4177  -26.1107 C   0  0  0  0  0  0  0  0  0  0  0  0
  -14.0494   18.2358  -26.2080 C   0  0  0  0  0  0  0  0  0  0  0  0
  -13.4722   17.4537  -27.1432 N   0  0  0  0  0  0  0  0  0  0  0  0
  -15.1562   17.8443  -25.2324 C   0  0  0  0  0  0  0  0  0  0  0  0
  -14.5111   17.1186  -24.0140 C   0  0  0  0  0  0  0  0  0  0  0  0
  -15.5108   16.1691  -23.3410 C   0  0  0  0  0  0  0  0  0  0  0  0
  -15.9055   15.0588  -24.2459 N   0  0  0  0  0  0  0  0  0  0  0  0
  -17.1636   14.4862  -23.8225 C   0  0  0  0  0  0  0  0  0  0  0  0
  -18.2076   15.1895  -23.7817 O   0  0  0  0  0  0  0  0  0  0  0  0
  -17.2550   13.0927  -23.4815 C   0  0  0  0  0  0  0  0  0  0  0  0
  -17.3535   11.9252  -23.1953 C   0  0  0  0  0  0  0  0  0  0  0  0
  -17.4889   10.5647  -22.8601 N   0  0  0  0  0  0  0  0  0  0  0  0
  -18.0466   10.1753  -21.5669 C   0  0  0  0  0  0  0  0  0  0  0  0
  -17.0366    9.5368  -23.7965 C   0  0  0  0  0  0  0  0  0  0  0  0
  -15.9578   15.4279  -25.6875 C   0  0  0  0  0  0  0  0  0  0  0  0
  -16.2197   16.9289  -25.9204 C   0  0  0  0  0  0  0  0  0  0  0  0
  -15.8629   19.1598  -24.7528 C   0  0  0  0  0  0  0  0  0  0  0  0
  -14.9025   20.1984  -24.3521 N   0  0  0  0  0  0  0  0  0  0  0  0
  -13.7206   20.4279  -25.1259 C   0  0  0  0  0  0  0  0  0  0  0  0
  -13.0085   21.4475  -24.9337 O   0  0  0  0  0  0  0  0  0  0  0  0
  -11.3443   16.3133  -28.8532 N   0  0  0  0  0  0  0  0  0  0  0  0
  1  2  1  0
  2  3  1  0
  3  4  2  0
  4  5  1  0
  5  6  2  0
  6  7  1  0
  7  8  2  0
  8  9  1  0
  8  3  1  0
  9 10  1  0
 10 11  2  0
 11 12  1  0
 12 13  2  0
 13 14  1  0
 14 15  1  0
 14 37  2  0
 15 16  2  0
 16 17  1  0
 17 18  2  0
 18 19  1  0
 18 20  1  0
 19 15  1  0
 20 21  1  0
 20 33  1  0
 21 22  1  0
 22 23  1  0
 23 24  1  0
 23 31  1  0
 24 25  2  0
 24 26  1  0
 26 27  3  0
 27 28  1  0
 28 29  1  0
 28 30  1  0
 31 32  1  0
 32 20  1  0
 33 34  1  0
 34 35  1  0
 35 36  2  0
 35 17  1  0
 37 10  1  0
M  END
$$$$
CHEMBL4068047_plants_01
     RDKit          3D

 43 47  0  0  0  0  0  0  0  0999 V2000
  -17.7894   19.6448  -23.6989 C   0  0  0  0  0  0  0  0  0  0  0  0
  -17.3265   18.6839  -24.5103 C   0  0  0  0  0  0  0  0  0  0  0  0
  -16.6628   17.4755  -23.9965 C   0  0  0  0  0  0  0  0  0  0  0  0
  -16.5306   17.3032  -22.7406 O   0  0  0  0  0  0  0  0  0  0  0  0
  -16.1267   16.5220  -24.9153 N   0  0  0  0  0  0  0  0  0  0  0  0
  -16.2216   15.1008  -24.7111 C   0  0  0  0  0  0  0  0  0  0  0  0
  -16.0210   14.2075  -25.7734 C   0  0  0  0  0  0  0  0  0  0  0  0
  -16.1393   12.8285  -25.5788 C   0  0  0  0  0  0  0  0  0  0  0  0
  -16.0028   11.9281  -26.6980 N   0  0  0  0  0  0  0  0  0  0  0  0
  -16.9772   11.0032  -26.9494 C   0  0  0  0  0  0  0  0  0  0  0  0
  -18.0056   10.9433  -26.2263 O   0  0  0  0  0  0  0  0  0  0  0  0
  -16.8495   10.1137  -28.0236 C   0  0  0  0  0  0  0  0  0  0  0  0
  -15.7255   10.1720  -28.8565 C   0  0  0  0  0  0  0  0  0  0  0  0
  -15.6204    9.2165  -30.0147 C   0  0  0  0  0  0  0  0  0  0  0  0
  -14.7182   11.1238  -28.5849 C   0  0  0  0  0  0  0  0  0  0  0  0
  -13.5444   11.2451  -29.3496 C   0  0  0  0  0  0  0  0  0  0  0  0
  -12.6136   12.1857  -29.0338 N   0  0  0  0  0  0  0  0  0  0  0  0
  -12.7934   13.0219  -27.9779 C   0  0  0  0  0  0  0  0  0  0  0  0
  -11.8276   14.0535  -27.6931 N   0  0  0  0  0  0  0  0  0  0  0  0
  -12.4348   15.1015  -26.9086 C   0  0  0  0  0  0  0  0  0  0  0  0
  -12.8230   14.8430  -25.5799 C   0  0  0  0  0  0  0  0  0  0  0  0
  -13.3203   15.8622  -24.7707 C   0  0  0  0  0  0  0  0  0  0  0  0
  -13.4466   17.1637  -25.2689 C   0  0  0  0  0  0  0  0  0  0  0  0
  -13.9999   18.2033  -24.4380 N   0  0  0  0  0  0  0  0  0  0  0  0
  -14.4735   19.4482  -25.0525 C   0  0  0  0  0  0  0  0  0  0  0  0
  -14.3259   20.6265  -24.0704 C   0  0  0  0  0  0  0  0  0  0  0  0
  -13.0991   20.5213  -23.2503 N   0  0  0  0  0  0  0  0  0  0  0  0
  -11.8829   20.7504  -24.0519 C   0  0  0  0  0  0  0  0  0  0  0  0
  -13.0141   19.2673  -22.4512 C   0  0  0  0  0  0  0  0  0  0  0  0
  -13.9209   18.1383  -22.9754 C   0  0  0  0  0  0  0  0  0  0  0  0
  -13.0857   17.4280  -26.5992 C   0  0  0  0  0  0  0  0  0  0  0  0
  -12.5686   16.4080  -27.4238 C   0  0  0  0  0  0  0  0  0  0  0  0
  -12.1813   16.6573  -28.7494 O   0  0  0  0  0  0  0  0  0  0  0  0
  -11.0371   16.0820  -29.3733 C   0  0  0  0  0  0  0  0  0  0  0  0
  -13.9294   12.9321  -27.2372 N   0  0  0  0  0  0  0  0  0  0  0  0
  -14.8871   12.0050  -27.4949 C   0  0  0  0  0  0  0  0  0  0  0  0
  -16.4692   12.3302  -24.3096 C   0  0  0  0  0  0  0  0  0  0  0  0
  -16.6334   13.2079  -23.2234 C   0  0  0  0  0  0  0  0  0  0  0  0
  -17.0553   12.6702  -21.8798 C   0  0  0  0  0  0  0  0  0  0  0  0
  -15.9913   12.7044  -20.9949 F   0  0  0  0  0  0  0  0  0  0  0  0
  -17.4830   11.3660  -22.0287 F   0  0  0  0  0  0  0  0  0  0  0  0
  -18.0917   13.4273  -21.3514 F   0  0  0  0  0  0  0  0  0  0  0  0
  -16.5074   14.5953  -23.4364 C   0  0  0  0  0  0  0  0  0  0  0  0
  1  2  2  0
  2  3  1  0
  3  4  2  0
  3  5  1  0
  5  6  1  0
  6  7  2  0
  7  8  1  0
  8  9  1  0
  8 37  2  0
  9 10  1  0
 10 11  2  0
 10 12  1  0
 12 13  2  0
 13 14  1  0
 13 15  1  0
 15 16  2  0
 16 17  1  0
 17 18  2  0
 18 19  1  0
 18 35  1  0
 19 20  1  0
 20 21  2  0
 21 22  1  0
 22 23  2  0
 23 24  1  0
 23 31  1  0
 24 25  1  0
 25 26  1  0
 26 27  1  0
 27 28  1  0
 27 29  1  0
 29 30  1  0
 30 24  1  0
 31 32  2  0
 32 33  1  0
 32 20  1  0
 33 34  1  0
 35 36  2  0
 36  9  1  0
 36 15  1  0
 37 38  1  0
 38 39  1  0
 38 43  2  0
 39 40  1  0
 39 41  1  0
 39 42  1  0
 43  6  1  0
M  END
$$$$
CHEMBL4068047_plants_02
     RDKit          3D

 43 47  0  0  0  0  0  0  0  0999 V2000
  -11.9447   17.9002  -24.7093 C   0  0  0  0  0  0  0  0  0  0  0  0
  -12.9808   18.3041  -23.9614 C   0  0  0  0  0  0  0  0  0  0  0  0
  -13.9728   17.3615  -23.4208 C   0  0  0  0  0  0  0  0  0  0  0  0
  -14.8497   17.7636  -22.5879 O   0  0  0  0  0  0  0  0  0  0  0  0
  -13.9156   15.9852  -23.7993 N   0  0  0  0  0  0  0  0  0  0  0  0
  -15.0904   15.1996  -24.0701 C   0  0  0  0  0  0  0  0  0  0  0  0
  -15.0272   14.0796  -24.9116 C   0  0  0  0  0  0  0  0  0  0  0  0
  -16.1746   13.3331  -25.1942 C   0  0  0  0  0  0  0  0  0  0  0  0
  -16.1064   12.2287  -26.1202 N   0  0  0  0  0  0  0  0  0  0  0  0
  -17.0171   11.2130  -26.0355 C   0  0  0  0  0  0  0  0  0  0  0  0
  -17.9305   11.2419  -25.1701 O   0  0  0  0  0  0  0  0  0  0  0  0
  -16.9525   10.1281  -26.9188 C   0  0  0  0  0  0  0  0  0  0  0  0
  -15.9592   10.0805  -27.9044 C   0  0  0  0  0  0  0  0  0  0  0  0
  -15.9222    8.9121  -28.8526 C   0  0  0  0  0  0  0  0  0  0  0  0
  -15.0159   11.1287  -27.9799 C   0  0  0  0  0  0  0  0  0  0  0  0
  -13.9701   11.1599  -28.9194 C   0  0  0  0  0  0  0  0  0  0  0  0
  -13.0954   12.2017  -28.9384 N   0  0  0  0  0  0  0  0  0  0  0  0
  -13.2089   13.2276  -28.0545 C   0  0  0  0  0  0  0  0  0  0  0  0
  -12.3120   14.3538  -28.1268 N   0  0  0  0  0  0  0  0  0  0  0  0
  -13.0239   15.5765  -27.8424 C   0  0  0  0  0  0  0  0  0  0  0  0
  -14.3778   15.5227  -27.4588 C   0  0  0  0  0  0  0  0  0  0  0  0
  -15.0597   16.6783  -27.0842 C   0  0  0  0  0  0  0  0  0  0  0  0
  -14.4085   17.9169  -27.0872 C   0  0  0  0  0  0  0  0  0  0  0  0
  -15.1325   19.1131  -26.7374 N   0  0  0  0  0  0  0  0  0  0  0  0
  -14.8015   20.3806  -27.3974 C   0  0  0  0  0  0  0  0  0  0  0  0
  -15.0906   21.5697  -26.4609 C   0  0  0  0  0  0  0  0  0  0  0  0
  -14.7703   21.2616  -25.0498 N   0  0  0  0  0  0  0  0  0  0  0  0
  -13.3163   21.1565  -24.8283 C   0  0  0  0  0  0  0  0  0  0  0  0
  -15.5048   20.0846  -24.5082 C   0  0  0  0  0  0  0  0  0  0  0  0
  -16.0542   19.1448  -25.5976 C   0  0  0  0  0  0  0  0  0  0  0  0
  -13.0661   17.9862  -27.4911 C   0  0  0  0  0  0  0  0  0  0  0  0
  -12.3615   16.8219  -27.8594 C   0  0  0  0  0  0  0  0  0  0  0  0
  -11.0128   16.8676  -28.2446 O   0  0  0  0  0  0  0  0  0  0  0  0
  -10.5191   17.6145  -29.3526 C   0  0  0  0  0  0  0  0  0  0  0  0
  -14.2234   13.2244  -27.1502 N   0  0  0  0  0  0  0  0  0  0  0  0
  -15.1182   12.2062  -27.0735 C   0  0  0  0  0  0  0  0  0  0  0  0
  -17.4056   13.7104  -24.6369 C   0  0  0  0  0  0  0  0  0  0  0  0
  -17.4806   14.8055  -23.7581 C   0  0  0  0  0  0  0  0  0  0  0  0
  -18.8176   15.2459  -23.2186 C   0  0  0  0  0  0  0  0  0  0  0  0
  -18.8753   16.6273  -23.1516 F   0  0  0  0  0  0  0  0  0  0  0  0
  -18.9901   14.7201  -21.9537 F   0  0  0  0  0  0  0  0  0  0  0  0
  -19.8475   14.8015  -24.0362 F   0  0  0  0  0  0  0  0  0  0  0  0
  -16.3135   15.5454  -23.4814 C   0  0  0  0  0  0  0  0  0  0  0  0
  1  2  2  0
  2  3  1  0
  3  4  2  0
  3  5  1  0
  5  6  1  0
  6  7  2  0
  7  8  1  0
  8  9  1  0
  8 37  2  0
  9 10  1  0
 10 11  2  0
 10 12  1  0
 12 13  2  0
 13 14  1  0
 13 15  1  0
 15 16  2  0
 16 17  1  0
 17 18  2  0
 18 19  1  0
 18 35  1  0
 19 20  1  0
 20 21  2  0
 21 22  1  0
 22 23  2  0
 23 24  1  0
 23 31  1  0
 24 25  1  0
 25 26  1  0
 26 27  1  0
 27 28  1  0
 27 29  1  0
 29 30  1  0
 30 24  1  0
 31 32  2  0
 32 33  1  0
 32 20  1  0
 33 34  1  0
 35 36  2  0
 36  9  1  0
 36 15  1  0
 37 38  1  0
 38 39  1  0
 38 43  2  0
 39 40  1  0
 39 41  1  0
 39 42  1  0
 43  6  1  0
M  END
$$$$
CHEMBL4068047_plants_03
     RDKit          3D

 43 47  0  0  0  0  0  0  0  0999 V2000
  -14.2598   19.7461  -26.8599 C   0  0  0  0  0  0  0  0  0  0  0  0
  -14.4198   18.6837  -27.6609 C   0  0  0  0  0  0  0  0  0  0  0  0
  -15.3942   17.6206  -27.3689 C   0  0  0  0  0  0  0  0  0  0  0  0
  -15.9079   16.9449  -28.3197 O   0  0  0  0  0  0  0  0  0  0  0  0
  -15.7950   17.3844  -26.0183 N   0  0  0  0  0  0  0  0  0  0  0  0
  -16.0004   16.0645  -25.4833 C   0  0  0  0  0  0  0  0  0  0  0  0
  -15.8090   14.9279  -26.2820 C   0  0  0  0  0  0  0  0  0  0  0  0
  -16.0342   13.6478  -25.7680 C   0  0  0  0  0  0  0  0  0  0  0  0
  -15.9042   12.4938  -26.6244 N   0  0  0  0  0  0  0  0  0  0  0  0
  -16.8575   11.5147  -26.5954 C   0  0  0  0  0  0  0  0  0  0  0  0
  -17.8614   11.6199  -25.8437 O   0  0  0  0  0  0  0  0  0  0  0  0
  -16.7352   10.3826  -27.4107 C   0  0  0  0  0  0  0  0  0  0  0  0
  -15.6391   10.2497  -28.2716 C   0  0  0  0  0  0  0  0  0  0  0  0
  -15.5400    9.0317  -29.1505 C   0  0  0  0  0  0  0  0  0  0  0  0
  -14.6532   11.2607  -28.2893 C   0  0  0  0  0  0  0  0  0  0  0  0
  -13.5070   11.2072  -29.1021 C   0  0  0  0  0  0  0  0  0  0  0  0
  -12.5960   12.2171  -29.0714 N   0  0  0  0  0  0  0  0  0  0  0  0
  -12.7692   13.2918  -28.2581 C   0  0  0  0  0  0  0  0  0  0  0  0
  -11.8268   14.3824  -28.2819 N   0  0  0  0  0  0  0  0  0  0  0  0
  -12.1233   15.3200  -27.2256 C   0  0  0  0  0  0  0  0  0  0  0  0
  -12.6743   14.8565  -26.0154 C   0  0  0  0  0  0  0  0  0  0  0  0
  -12.8781   15.7250  -24.9454 C   0  0  0  0  0  0  0  0  0  0  0  0
  -12.5410   17.0785  -25.0581 C   0  0  0  0  0  0  0  0  0  0  0  0
  -12.7929   17.9781  -23.9606 N   0  0  0  0  0  0  0  0  0  0  0  0
  -13.7519   17.5991  -22.9173 C   0  0  0  0  0  0  0  0  0  0  0  0
  -14.4140   18.8513  -22.3104 C   0  0  0  0  0  0  0  0  0  0  0  0
  -14.6633   19.8995  -23.3242 N   0  0  0  0  0  0  0  0  0  0  0  0
  -15.7374   19.5144  -24.2581 C   0  0  0  0  0  0  0  0  0  0  0  0
  -13.4367   20.3510  -24.0384 C   0  0  0  0  0  0  0  0  0  0  0  0
  -12.2707   19.3482  -23.9579 C   0  0  0  0  0  0  0  0  0  0  0  0
  -12.0138   17.5566  -26.2678 C   0  0  0  0  0  0  0  0  0  0  0  0
  -11.7903   16.6849  -27.3531 C   0  0  0  0  0  0  0  0  0  0  0  0
  -11.2433   17.1395  -28.5629 O   0  0  0  0  0  0  0  0  0  0  0  0
  -10.3005   16.4094  -29.3423 C   0  0  0  0  0  0  0  0  0  0  0  0
  -13.8792   13.3704  -27.4779 N   0  0  0  0  0  0  0  0  0  0  0  0
  -14.8159   12.3879  -27.4549 C   0  0  0  0  0  0  0  0  0  0  0  0
  -16.4633   13.4958  -24.4410 C   0  0  0  0  0  0  0  0  0  0  0  0
  -16.6208   14.6212  -23.6129 C   0  0  0  0  0  0  0  0  0  0  0  0
  -17.1481   14.4546  -22.2106 C   0  0  0  0  0  0  0  0  0  0  0  0
  -18.4334   13.9415  -22.2403 F   0  0  0  0  0  0  0  0  0  0  0  0
  -17.1624   15.6847  -21.5838 F   0  0  0  0  0  0  0  0  0  0  0  0
  -16.3446   13.5872  -21.4837 F   0  0  0  0  0  0  0  0  0  0  0  0
  -16.3863   15.9045  -24.1462 C   0  0  0  0  0  0  0  0  0  0  0  0
  1  2  2  0
  2  3  1  0
  3  4  2  0
  3  5  1  0
  5  6  1  0
  6  7  2  0
  7  8  1  0
  8  9  1  0
  8 37  2  0
  9 10  1  0
 10 11  2  0
 10 12  1  0
 12 13  2  0
 13 14  1  0
 13 15  1  0
 15 16  2  0
 16 17  1  0
 17 18  2  0
 18 19  1  0
 18 35  1  0
 19 20  1  0
 20 21  2  0
 21 22  1  0
 22 23  2  0
 23 24  1  0
 23 31  1  0
 24 25  1  0
 25 26  1  0
 26 27  1  0
 27 28  1  0
 27 29  1  0
 29 30  1  0
 30 24  1  0
 31 32  2  0
 32 33  1  0
 32 20  1  0
 33 34  1  0
 35 36  2  0
 36  9  1  0
 36 15  1  0
 37 38  1  0
 38 39  1  0
 38 43  2  0
 39 40  1  0
 39 41  1  0
 39 42  1  0
 43  6  1  0
M  END
$$$$
CHEMBL4068047_plants_04
     RDKit          3D

 43 47  0  0  0  0  0  0  0  0999 V2000
   -8.6657   15.9586  -30.2829 C   0  0  0  0  0  0  0  0  0  0  0  0
   -9.3546   15.2218  -29.4005 C   0  0  0  0  0  0  0  0  0  0  0  0
  -10.4188   15.7947  -28.5614 C   0  0  0  0  0  0  0  0  0  0  0  0
  -10.6926   17.0372  -28.6352 O   0  0  0  0  0  0  0  0  0  0  0  0
  -11.1086   14.9585  -27.6310 N   0  0  0  0  0  0  0  0  0  0  0  0
  -12.5250   15.0536  -27.3954 C   0  0  0  0  0  0  0  0  0  0  0  0
  -13.2929   13.9041  -27.1603 C   0  0  0  0  0  0  0  0  0  0  0  0
  -14.6727   13.9961  -26.9577 C   0  0  0  0  0  0  0  0  0  0  0  0
  -15.4586   12.7976  -26.7910 N   0  0  0  0  0  0  0  0  0  0  0  0
  -15.1809   11.6920  -27.5451 C   0  0  0  0  0  0  0  0  0  0  0  0
  -14.2302   11.7012  -28.3698 O   0  0  0  0  0  0  0  0  0  0  0  0
  -15.9458   10.5274  -27.4033 C   0  0  0  0  0  0  0  0  0  0  0  0
  -16.9961   10.4828  -26.4786 C   0  0  0  0  0  0  0  0  0  0  0  0
  -17.7918    9.2134  -26.3330 C   0  0  0  0  0  0  0  0  0  0  0  0
  -17.2834   11.6320  -25.7098 C   0  0  0  0  0  0  0  0  0  0  0  0
  -18.3300   11.6920  -24.7725 C   0  0  0  0  0  0  0  0  0  0  0  0
  -18.5517   12.8315  -24.0633 N   0  0  0  0  0  0  0  0  0  0  0  0
  -17.7749   13.9316  -24.2448 C   0  0  0  0  0  0  0  0  0  0  0  0
  -17.9833   15.1107  -23.4421 N   0  0  0  0  0  0  0  0  0  0  0  0
  -16.8158   15.9577  -23.4886 C   0  0  0  0  0  0  0  0  0  0  0  0
  -16.9579   17.3263  -23.7885 C   0  0  0  0  0  0  0  0  0  0  0  0
  -15.8611   18.1841  -23.7434 C   0  0  0  0  0  0  0  0  0  0  0  0
  -14.5946   17.6966  -23.4020 C   0  0  0  0  0  0  0  0  0  0  0  0
  -13.4581   18.5830  -23.3974 N   0  0  0  0  0  0  0  0  0  0  0  0
  -13.5692   19.9018  -22.7648 C   0  0  0  0  0  0  0  0  0  0  0  0
  -12.6304   20.9122  -23.4521 C   0  0  0  0  0  0  0  0  0  0  0  0
  -12.5513   20.6980  -24.9138 N   0  0  0  0  0  0  0  0  0  0  0  0
  -13.8073   21.0700  -25.5909 C   0  0  0  0  0  0  0  0  0  0  0  0
  -12.0909   19.3350  -25.2992 C   0  0  0  0  0  0  0  0  0  0  0  0
  -12.2541   18.2889  -24.1808 C   0  0  0  0  0  0  0  0  0  0  0  0
  -14.4365   16.3299  -23.1250 C   0  0  0  0  0  0  0  0  0  0  0  0
  -15.5410   15.4543  -23.1541 C   0  0  0  0  0  0  0  0  0  0  0  0
  -15.4072   14.0889  -22.8584 O   0  0  0  0  0  0  0  0  0  0  0  0
  -16.1013   13.4233  -21.8074 C   0  0  0  0  0  0  0  0  0  0  0  0
  -16.7474   13.8878  -25.1333 N   0  0  0  0  0  0  0  0  0  0  0  0
  -16.4859   12.7844  -25.8799 C   0  0  0  0  0  0  0  0  0  0  0  0
  -15.3000   15.2504  -26.9965 C   0  0  0  0  0  0  0  0  0  0  0  0
  -14.5406   16.4179  -27.1897 C   0  0  0  0  0  0  0  0  0  0  0  0
  -15.2305   17.7538  -27.2990 C   0  0  0  0  0  0  0  0  0  0  0  0
  -15.6901   17.9511  -28.5897 F   0  0  0  0  0  0  0  0  0  0  0  0
  -14.3343   18.7531  -26.9760 F   0  0  0  0  0  0  0  0  0  0  0  0
  -16.3121   17.8202  -26.4316 F   0  0  0  0  0  0  0  0  0  0  0  0
  -13.1498   16.3073  -27.3892 C   0  0  0  0  0  0  0  0  0  0  0  0
  1  2  2  0
  2  3  1  0
  3  4  2  0
  3  5  1  0
  5  6  1  0
  6  7  2  0
  7  8  1  0
  8  9  1  0
  8 37  2  0
  9 10  1  0
 10 11  2  0
 10 12  1  0
 12 13  2  0
 13 14  1  0
 13 15  1  0
 15 16  2  0
 16 17  1  0
 17 18  2  0
 18 19  1  0
 18 35  1  0
 19 20  1  0
 20 21  2  0
 21 22  1  0
 22 23  2  0
 23 24  1  0
 23 31  1  0
 24 25  1  0
 25 26  1  0
 26 27  1  0
 27 28  1  0
 27 29  1  0
 29 30  1  0
 30 24  1  0
 31 32  2  0
 32 33  1  0
 32 20  1  0
 33 34  1  0
 35 36  2  0
 36  9  1  0
 36 15  1  0
 37 38  1  0
 38 39  1  0
 38 43  2  0
 39 40  1  0
 39 41  1  0
 39 42  1  0
 43  6  1  0
M  END
$$$$
CHEMBL4068047_plants_05
     RDKit          3D

 43 47  0  0  0  0  0  0  0  0999 V2000
  -15.9239   21.4355  -25.8540 C   0  0  0  0  0  0  0  0  0  0  0  0
  -15.5136   20.1940  -25.5603 C   0  0  0  0  0  0  0  0  0  0  0  0
  -15.1492   19.2209  -26.6021 C   0  0  0  0  0  0  0  0  0  0  0  0
  -14.3003   19.5329  -27.5000 O   0  0  0  0  0  0  0  0  0  0  0  0
  -15.7885   17.9437  -26.6271 N   0  0  0  0  0  0  0  0  0  0  0  0
  -15.0876   16.7246  -26.9322 C   0  0  0  0  0  0  0  0  0  0  0  0
  -15.7216   15.4803  -26.8047 C   0  0  0  0  0  0  0  0  0  0  0  0
  -15.0311   14.2958  -27.0764 C   0  0  0  0  0  0  0  0  0  0  0  0
  -15.6757   13.0217  -26.8690 N   0  0  0  0  0  0  0  0  0  0  0  0
  -15.3287   11.9501  -27.6433 C   0  0  0  0  0  0  0  0  0  0  0  0
  -14.4348   12.0577  -28.5228 O   0  0  0  0  0  0  0  0  0  0  0  0
  -15.9575   10.7118  -27.4620 C   0  0  0  0  0  0  0  0  0  0  0  0
  -16.9407   10.5587  -26.4770 C   0  0  0  0  0  0  0  0  0  0  0  0
  -17.5888    9.2131  -26.2904 C   0  0  0  0  0  0  0  0  0  0  0  0
  -17.3008   11.6727  -25.6872 C   0  0  0  0  0  0  0  0  0  0  0  0
  -18.2904   11.6240  -24.6894 C   0  0  0  0  0  0  0  0  0  0  0  0
  -18.5880   12.7351  -23.9630 N   0  0  0  0  0  0  0  0  0  0  0  0
  -17.9431   13.9104  -24.1851 C   0  0  0  0  0  0  0  0  0  0  0  0
  -18.2260   15.0624  -23.3661 N   0  0  0  0  0  0  0  0  0  0  0  0
  -17.0547   15.8988  -23.2613 C   0  0  0  0  0  0  0  0  0  0  0  0
  -17.1569   17.2788  -23.5226 C   0  0  0  0  0  0  0  0  0  0  0  0
  -16.0654   18.1235  -23.3336 C   0  0  0  0  0  0  0  0  0  0  0  0
  -14.8435   17.6113  -22.8831 C   0  0  0  0  0  0  0  0  0  0  0  0
  -13.7080   18.4856  -22.7291 N   0  0  0  0  0  0  0  0  0  0  0  0
  -13.8270   19.9007  -23.0964 C   0  0  0  0  0  0  0  0  0  0  0  0
  -12.4659   20.4557  -23.5594 C   0  0  0  0  0  0  0  0  0  0  0  0
  -11.6895   19.4612  -24.3319 N   0  0  0  0  0  0  0  0  0  0  0  0
  -12.2858   19.2097  -25.6569 C   0  0  0  0  0  0  0  0  0  0  0  0
  -11.4218   18.1975  -23.5904 C   0  0  0  0  0  0  0  0  0  0  0  0
  -12.3771   17.9627  -22.4054 C   0  0  0  0  0  0  0  0  0  0  0  0
  -14.7230   16.2338  -22.6427 C   0  0  0  0  0  0  0  0  0  0  0  0
  -15.8241   15.3709  -22.8174 C   0  0  0  0  0  0  0  0  0  0  0  0
  -15.7297   13.9944  -22.5608 O   0  0  0  0  0  0  0  0  0  0  0  0
  -16.5292   13.2983  -21.6091 C   0  0  0  0  0  0  0  0  0  0  0  0
  -16.9712   13.9733  -25.1330 N   0  0  0  0  0  0  0  0  0  0  0  0
  -16.6401   12.9022  -25.8989 C   0  0  0  0  0  0  0  0  0  0  0  0
  -13.6869   14.3491  -27.4743 C   0  0  0  0  0  0  0  0  0  0  0  0
  -13.0468   15.5890  -27.6474 C   0  0  0  0  0  0  0  0  0  0  0  0
  -11.5838   15.6357  -28.0078 C   0  0  0  0  0  0  0  0  0  0  0  0
  -10.9518   16.6527  -27.3133 F   0  0  0  0  0  0  0  0  0  0  0  0
  -11.4592   15.8634  -29.3638 F   0  0  0  0  0  0  0  0  0  0  0  0
  -10.9620   14.4353  -27.6930 F   0  0  0  0  0  0  0  0  0  0  0  0
  -13.7586   16.7738  -27.3722 C   0  0  0  0  0  0  0  0  0  0  0  0
  1  2  2  0
  2  3  1  0
  3  4  2  0
  3  5  1  0
  5  6  1  0
  6  7  2  0
  7  8  1  0
  8  9  1  0
  8 37  2  0
  9 10  1  0
 10 11  2  0
 10 12  1  0
 12 13  2  0
 13 14  1  0
 13 15  1  0
 15 16  2  0
 16 17  1  0
 17 18  2  0
 18 19  1  0
 18 35  1  0
 19 20  1  0
 20 21  2  0
 21 22  1  0
 22 23  2  0
 23 24  1  0
 23 31  1  0
 24 25  1  0
 25 26  1  0
 26 27  1  0
 27 28  1  0
 27 29  1  0
 29 30  1  0
 30 24  1  0
 31 32  2  0
 32 33  1  0
 32 20  1  0
 33 34  1  0
 35 36  2  0
 36  9  1  0
 36 15  1  0
 37 38  1  0
 38 39  1  0
 38 43  2  0
 39 40  1  0
 39 41  1  0
 39 42  1  0
 43  6  1  0
M  END
$$$$
CHEMBL4068047_plants_06
     RDKit          3D

 43 47  0  0  0  0  0  0  0  0999 V2000
  -10.3879   16.7111  -32.0851 C   0  0  0  0  0  0  0  0  0  0  0  0
  -10.1587   17.4497  -30.9906 C   0  0  0  0  0  0  0  0  0  0  0  0
  -10.2798   16.8978  -29.6321 C   0  0  0  0  0  0  0  0  0  0  0  0
   -9.9925   17.6184  -28.6209 O   0  0  0  0  0  0  0  0  0  0  0  0
  -10.6751   15.5361  -29.4580 N   0  0  0  0  0  0  0  0  0  0  0  0
  -11.5711   15.1094  -28.4161 C   0  0  0  0  0  0  0  0  0  0  0  0
  -12.3407   13.9463  -28.5622 C   0  0  0  0  0  0  0  0  0  0  0  0
  -13.2298   13.5477  -27.5601 C   0  0  0  0  0  0  0  0  0  0  0  0
  -14.0677   12.3899  -27.7583 N   0  0  0  0  0  0  0  0  0  0  0  0
  -13.7676   11.4945  -28.7465 C   0  0  0  0  0  0  0  0  0  0  0  0
  -12.7528   11.6581  -29.4728 O   0  0  0  0  0  0  0  0  0  0  0  0
  -14.5813   10.3745  -28.9587 C   0  0  0  0  0  0  0  0  0  0  0  0
  -15.7047   10.1571  -28.1519 C   0  0  0  0  0  0  0  0  0  0  0  0
  -16.5531    8.9367  -28.3891 C   0  0  0  0  0  0  0  0  0  0  0  0
  -16.0140   11.0915  -27.1391 C   0  0  0  0  0  0  0  0  0  0  0  0
  -17.1311   10.9718  -26.2935 C   0  0  0  0  0  0  0  0  0  0  0  0
  -17.3706   11.9082  -25.3360 N   0  0  0  0  0  0  0  0  0  0  0  0
  -16.5440   12.9751  -25.1776 C   0  0  0  0  0  0  0  0  0  0  0  0
  -16.7764   13.9256  -24.1192 N   0  0  0  0  0  0  0  0  0  0  0  0
  -16.4444   15.2577  -24.5642 C   0  0  0  0  0  0  0  0  0  0  0  0
  -16.0852   15.4752  -25.9083 C   0  0  0  0  0  0  0  0  0  0  0  0
  -15.8560   16.7636  -26.3860 C   0  0  0  0  0  0  0  0  0  0  0  0
  -15.9754   17.8665  -25.5331 C   0  0  0  0  0  0  0  0  0  0  0  0
  -15.6969   19.1922  -26.0254 N   0  0  0  0  0  0  0  0  0  0  0  0
  -15.6965   19.4443  -27.4704 C   0  0  0  0  0  0  0  0  0  0  0  0
  -14.7251   20.5884  -27.8198 C   0  0  0  0  0  0  0  0  0  0  0  0
  -13.5056   20.5625  -26.9826 N   0  0  0  0  0  0  0  0  0  0  0  0
  -12.6329   19.4231  -27.3208 C   0  0  0  0  0  0  0  0  0  0  0  0
  -13.7766   20.6444  -25.5203 C   0  0  0  0  0  0  0  0  0  0  0  0
  -15.2160   20.2542  -25.1361 C   0  0  0  0  0  0  0  0  0  0  0  0
  -16.3091   17.6598  -24.1856 C   0  0  0  0  0  0  0  0  0  0  0  0
  -16.5567   16.3621  -23.6935 C   0  0  0  0  0  0  0  0  0  0  0  0
  -16.9133   16.1370  -22.3550 O   0  0  0  0  0  0  0  0  0  0  0  0
  -17.9007   15.2004  -21.9338 C   0  0  0  0  0  0  0  0  0  0  0  0
  -15.4493   13.0992  -25.9735 N   0  0  0  0  0  0  0  0  0  0  0  0
  -15.1659   12.2050  -26.9550 C   0  0  0  0  0  0  0  0  0  0  0  0
  -13.3609   14.3216  -26.3973 C   0  0  0  0  0  0  0  0  0  0  0  0
  -12.5676   15.4682  -26.2151 C   0  0  0  0  0  0  0  0  0  0  0  0
  -12.7639   16.3317  -24.9951 C   0  0  0  0  0  0  0  0  0  0  0  0
  -13.6691   15.7405  -24.1307 F   0  0  0  0  0  0  0  0  0  0  0  0
  -13.2456   17.5649  -25.3868 F   0  0  0  0  0  0  0  0  0  0  0  0
  -11.5635   16.5096  -24.3212 F   0  0  0  0  0  0  0  0  0  0  0  0
  -11.6738   15.8541  -27.2341 C   0  0  0  0  0  0  0  0  0  0  0  0
  1  2  2  0
  2  3  1  0
  3  4  2  0
  3  5  1  0
  5  6  1  0
  6  7  2  0
  7  8  1  0
  8  9  1  0
  8 37  2  0
  9 10  1  0
 10 11  2  0
 10 12  1  0
 12 13  2  0
 13 14  1  0
 13 15  1  0
 15 16  2  0
 16 17  1  0
 17 18  2  0
 18 19  1  0
 18 35  1  0
 19 20  1  0
 20 21  2  0
 21 22  1  0
 22 23  2  0
 23 24  1  0
 23 31  1  0
 24 25  1  0
 25 26  1  0
 26 27  1  0
 27 28  1  0
 27 29  1  0
 29 30  1  0
 30 24  1  0
 31 32  2  0
 32 33  1  0
 32 20  1  0
 33 34  1  0
 35 36  2  0
 36  9  1  0
 36 15  1  0
 37 38  1  0
 38 39  1  0
 38 43  2  0
 39 40  1  0
 39 41  1  0
 39 42  1  0
 43  6  1  0
M  END
$$$$
CHEMBL4068047_plants_07
     RDKit          3D

 43 47  0  0  0  0  0  0  0  0999 V2000
  -18.5273   18.1914  -23.6141 C   0  0  0  0  0  0  0  0  0  0  0  0
  -17.7630   17.7975  -24.6421 C   0  0  0  0  0  0  0  0  0  0  0  0
  -16.4633   18.4206  -24.9375 C   0  0  0  0  0  0  0  0  0  0  0  0
  -15.9506   19.2504  -24.1172 O   0  0  0  0  0  0  0  0  0  0  0  0
  -15.8049   18.1253  -26.1704 N   0  0  0  0  0  0  0  0  0  0  0  0
  -14.3822   17.9341  -26.2705 C   0  0  0  0  0  0  0  0  0  0  0  0
  -13.7975   17.5075  -27.4716 C   0  0  0  0  0  0  0  0  0  0  0  0
  -12.4185   17.2972  -27.5594 C   0  0  0  0  0  0  0  0  0  0  0  0
  -11.8431   16.7876  -28.7804 N   0  0  0  0  0  0  0  0  0  0  0  0
  -11.4661   17.6541  -29.7680 C   0  0  0  0  0  0  0  0  0  0  0  0
  -11.5955   18.8965  -29.6140 O   0  0  0  0  0  0  0  0  0  0  0  0
  -10.9202   17.1711  -30.9639 C   0  0  0  0  0  0  0  0  0  0  0  0
  -10.7460   15.7948  -31.1534 C   0  0  0  0  0  0  0  0  0  0  0  0
  -10.1409   15.3024  -32.4406 C   0  0  0  0  0  0  0  0  0  0  0  0
  -11.1467   14.9050  -30.1326 C   0  0  0  0  0  0  0  0  0  0  0  0
  -11.0325   13.5074  -30.2381 C   0  0  0  0  0  0  0  0  0  0  0  0
  -11.4369   12.7066  -29.2154 N   0  0  0  0  0  0  0  0  0  0  0  0
  -11.9600   13.2341  -28.0776 C   0  0  0  0  0  0  0  0  0  0  0  0
  -12.3269   12.3763  -26.9788 N   0  0  0  0  0  0  0  0  0  0  0  0
  -13.6439   12.7184  -26.4980 C   0  0  0  0  0  0  0  0  0  0  0  0
  -13.7853   13.6618  -25.4621 C   0  0  0  0  0  0  0  0  0  0  0  0
  -15.0471   14.0822  -25.0474 C   0  0  0  0  0  0  0  0  0  0  0  0
  -16.1991   13.5682  -25.6532 C   0  0  0  0  0  0  0  0  0  0  0  0
  -17.5011   13.9780  -25.1905 N   0  0  0  0  0  0  0  0  0  0  0  0
  -17.6117   14.8657  -24.0280 C   0  0  0  0  0  0  0  0  0  0  0  0
  -18.9297   14.6065  -23.2728 C   0  0  0  0  0  0  0  0  0  0  0  0
  -19.2938   13.1727  -23.2584 N   0  0  0  0  0  0  0  0  0  0  0  0
  -18.3902   12.3864  -22.3985 C   0  0  0  0  0  0  0  0  0  0  0  0
  -19.4369   12.5735  -24.6145 C   0  0  0  0  0  0  0  0  0  0  0  0
  -18.7275   13.3752  -25.7218 C   0  0  0  0  0  0  0  0  0  0  0  0
  -16.0709   12.6092  -26.6700 C   0  0  0  0  0  0  0  0  0  0  0  0
  -14.7993   12.1859  -27.1076 C   0  0  0  0  0  0  0  0  0  0  0  0
  -14.6501   11.2448  -28.1380 O   0  0  0  0  0  0  0  0  0  0  0  0
  -15.3523   10.0070  -28.2027 C   0  0  0  0  0  0  0  0  0  0  0  0
  -12.0623   14.5832  -27.9494 N   0  0  0  0  0  0  0  0  0  0  0  0
  -11.6888   15.4325  -28.9406 C   0  0  0  0  0  0  0  0  0  0  0  0
  -11.6090   17.5076  -26.4330 C   0  0  0  0  0  0  0  0  0  0  0  0
  -12.1717   17.9749  -25.2321 C   0  0  0  0  0  0  0  0  0  0  0  0
  -11.3064   18.1321  -24.0078 C   0  0  0  0  0  0  0  0  0  0  0  0
   -9.9707   17.9964  -24.3450 F   0  0  0  0  0  0  0  0  0  0  0  0
  -11.6453   17.1610  -23.0869 F   0  0  0  0  0  0  0  0  0  0  0  0
  -11.4905   19.3823  -23.4336 F   0  0  0  0  0  0  0  0  0  0  0  0
  -13.5635   18.1849  -25.1618 C   0  0  0  0  0  0  0  0  0  0  0  0
  1  2  2  0
  2  3  1  0
  3  4  2  0
  3  5  1  0
  5  6  1  0
  6  7  2  0
  7  8  1  0
  8  9  1  0
  8 37  2  0
  9 10  1  0
 10 11  2  0
 10 12  1  0
 12 13  2  0
 13 14  1  0
 13 15  1  0
 15 16  2  0
 16 17  1  0
 17 18  2  0
 18 19  1  0
 18 35  1  0
 19 20  1  0
 20 21  2  0
 21 22  1  0
 22 23  2  0
 23 24  1  0
 23 31  1  0
 24 25  1  0
 25 26  1  0
 26 27  1  0
 27 28  1  0
 27 29  1  0
 29 30  1  0
 30 24  1  0
 31 32  2  0
 32 33  1  0
 32 20  1  0
 33 34  1  0
 35 36  2  0
 36  9  1  0
 36 15  1  0
 37 38  1  0
 38 39  1  0
 38 43  2  0
 39 40  1  0
 39 41  1  0
 39 42  1  0
 43  6  1  0
M  END
$$$$
CHEMBL4068047_plants_08
     RDKit          3D

 43 47  0  0  0  0  0  0  0  0999 V2000
  -16.5372   13.4711  -22.0066 C   0  0  0  0  0  0  0  0  0  0  0  0
  -17.4592   14.3926  -22.3177 C   0  0  0  0  0  0  0  0  0  0  0  0
  -17.1744   15.5102  -23.2313 C   0  0  0  0  0  0  0  0  0  0  0  0
  -17.7783   16.6234  -23.0880 O   0  0  0  0  0  0  0  0  0  0  0  0
  -16.2532   15.3231  -24.3069 N   0  0  0  0  0  0  0  0  0  0  0  0
  -15.3046   16.3283  -24.7075 C   0  0  0  0  0  0  0  0  0  0  0  0
  -14.5690   16.1899  -25.8933 C   0  0  0  0  0  0  0  0  0  0  0  0
  -13.6292   17.1545  -26.2674 C   0  0  0  0  0  0  0  0  0  0  0  0
  -12.8286   16.9598  -27.4519 N   0  0  0  0  0  0  0  0  0  0  0  0
  -12.5397   18.0238  -28.2598 C   0  0  0  0  0  0  0  0  0  0  0  0
  -12.9473   19.1785  -27.9689 O   0  0  0  0  0  0  0  0  0  0  0  0
  -11.7761   17.8454  -29.4202 C   0  0  0  0  0  0  0  0  0  0  0  0
  -11.2926   16.5753  -29.7568 C   0  0  0  0  0  0  0  0  0  0  0  0
  -10.4595   16.4133  -30.9999 C   0  0  0  0  0  0  0  0  0  0  0  0
  -11.6030   15.4790  -28.9224 C   0  0  0  0  0  0  0  0  0  0  0  0
  -11.1823   14.1637  -29.1876 C   0  0  0  0  0  0  0  0  0  0  0  0
  -11.5156   13.1526  -28.3406 N   0  0  0  0  0  0  0  0  0  0  0  0
  -12.2602   13.3875  -27.2284 C   0  0  0  0  0  0  0  0  0  0  0  0
  -12.5532   12.3169  -26.3086 N   0  0  0  0  0  0  0  0  0  0  0  0
  -13.9803   12.1761  -26.1465 C   0  0  0  0  0  0  0  0  0  0  0  0
  -14.5952   12.6214  -24.9605 C   0  0  0  0  0  0  0  0  0  0  0  0
  -15.9807   12.5872  -24.8189 C   0  0  0  0  0  0  0  0  0  0  0  0
  -16.7866   12.1039  -25.8558 C   0  0  0  0  0  0  0  0  0  0  0  0
  -18.2161   12.0342  -25.6854 N   0  0  0  0  0  0  0  0  0  0  0  0
  -19.0984   12.4661  -26.7747 C   0  0  0  0  0  0  0  0  0  0  0  0
  -20.4283   13.0046  -26.2124 C   0  0  0  0  0  0  0  0  0  0  0  0
  -20.2399   13.7548  -24.9514 N   0  0  0  0  0  0  0  0  0  0  0  0
  -19.5594   15.0434  -25.1768 C   0  0  0  0  0  0  0  0  0  0  0  0
  -19.5919   12.9623  -23.8695 C   0  0  0  0  0  0  0  0  0  0  0  0
  -18.8184   11.7334  -24.3829 C   0  0  0  0  0  0  0  0  0  0  0  0
  -16.1832   11.6347  -27.0330 C   0  0  0  0  0  0  0  0  0  0  0  0
  -14.7832   11.6767  -27.1935 C   0  0  0  0  0  0  0  0  0  0  0  0
  -14.1628   11.2331  -28.3716 O   0  0  0  0  0  0  0  0  0  0  0  0
  -14.7722   10.3640  -29.3216 C   0  0  0  0  0  0  0  0  0  0  0  0
  -12.6616   14.6548  -26.9455 N   0  0  0  0  0  0  0  0  0  0  0  0
  -12.3720   15.7019  -27.7597 C   0  0  0  0  0  0  0  0  0  0  0  0
  -13.4124   18.2708  -25.4459 C   0  0  0  0  0  0  0  0  0  0  0  0
  -14.1698   18.4474  -24.2744 C   0  0  0  0  0  0  0  0  0  0  0  0
  -13.8827   19.6128  -23.3624 C   0  0  0  0  0  0  0  0  0  0  0  0
  -12.6446   20.1574  -23.6568 F   0  0  0  0  0  0  0  0  0  0  0  0
  -13.8886   19.1746  -22.0532 F   0  0  0  0  0  0  0  0  0  0  0  0
  -14.8452   20.6017  -23.5114 F   0  0  0  0  0  0  0  0  0  0  0  0
  -15.1155   17.4668  -23.9136 C   0  0  0  0  0  0  0  0  0  0  0  0
  1  2  2  0
  2  3  1  0
  3  4  2  0
  3  5  1  0
  5  6  1  0
  6  7  2  0
  7  8  1  0
  8  9  1  0
  8 37  2  0
  9 10  1  0
 10 11  2  0
 10 12  1  0
 12 13  2  0
 13 14  1  0
 13 15  1  0
 15 16  2  0
 16 17  1  0
 17 18  2  0
 18 19  1  0
 18 35  1  0
 19 20  1  0
 20 21  2  0
 21 22  1  0
 22 23  2  0
 23 24  1  0
 23 31  1  0
 24 25  1  0
 25 26  1  0
 26 27  1  0
 27 28  1  0
 27 29  1  0
 29 30  1  0
 30 24  1  0
 31 32  2  0
 32 33  1  0
 32 20  1  0
 33 34  1  0
 35 36  2  0
 36  9  1  0
 36 15  1  0
 37 38  1  0
 38 39  1  0
 38 43  2  0
 39 40  1  0
 39 41  1  0
 39 42  1  0
 43  6  1  0
M  END
$$$$
CHEMBL4068047_plants_09
     RDKit          3D

 43 47  0  0  0  0  0  0  0  0999 V2000
  -10.4856   16.6615  -22.6866 C   0  0  0  0  0  0  0  0  0  0  0  0
  -10.7137   17.6711  -23.5378 C   0  0  0  0  0  0  0  0  0  0  0  0
  -11.5639   17.5166  -24.7286 C   0  0  0  0  0  0  0  0  0  0  0  0
  -11.7510   18.5032  -25.5135 O   0  0  0  0  0  0  0  0  0  0  0  0
  -12.2149   16.2685  -24.9718 N   0  0  0  0  0  0  0  0  0  0  0  0
  -12.3399   15.6950  -26.2856 C   0  0  0  0  0  0  0  0  0  0  0  0
  -13.0803   14.5217  -26.4897 C   0  0  0  0  0  0  0  0  0  0  0  0
  -13.1789   13.9518  -27.7621 C   0  0  0  0  0  0  0  0  0  0  0  0
  -13.8824   12.7049  -27.9412 N   0  0  0  0  0  0  0  0  0  0  0  0
  -13.5544   11.8824  -28.9824 C   0  0  0  0  0  0  0  0  0  0  0  0
  -12.6277   12.1918  -29.7759 O   0  0  0  0  0  0  0  0  0  0  0  0
  -14.2399   10.6765  -29.1758 C   0  0  0  0  0  0  0  0  0  0  0  0
  -15.2612   10.2980  -28.2961 C   0  0  0  0  0  0  0  0  0  0  0  0
  -15.9706    8.9887  -28.5156 C   0  0  0  0  0  0  0  0  0  0  0  0
  -15.6011   11.1572  -27.2281 C   0  0  0  0  0  0  0  0  0  0  0  0
  -16.6250   10.8753  -26.3064 C   0  0  0  0  0  0  0  0  0  0  0  0
  -16.9005   11.7468  -25.2987 N   0  0  0  0  0  0  0  0  0  0  0  0
  -16.2001   12.9032  -25.1620 C   0  0  0  0  0  0  0  0  0  0  0  0
  -16.4623   13.7868  -24.0536 N   0  0  0  0  0  0  0  0  0  0  0  0
  -16.2004   15.1541  -24.4338 C   0  0  0  0  0  0  0  0  0  0  0  0
  -15.3456   15.4250  -25.5196 C   0  0  0  0  0  0  0  0  0  0  0  0
  -15.1539   16.7299  -25.9683 C   0  0  0  0  0  0  0  0  0  0  0  0
  -15.8071   17.7971  -25.3419 C   0  0  0  0  0  0  0  0  0  0  0  0
  -15.5715   19.1477  -25.7865 N   0  0  0  0  0  0  0  0  0  0  0  0
  -14.4252   19.4359  -26.6552 C   0  0  0  0  0  0  0  0  0  0  0  0
  -13.9211   20.8741  -26.4263 C   0  0  0  0  0  0  0  0  0  0  0  0
  -14.0065   21.2776  -25.0056 N   0  0  0  0  0  0  0  0  0  0  0  0
  -13.0203   20.5645  -24.1731 C   0  0  0  0  0  0  0  0  0  0  0  0
  -15.3809   21.1960  -24.4374 C   0  0  0  0  0  0  0  0  0  0  0  0
  -16.3255   20.2780  -25.2355 C   0  0  0  0  0  0  0  0  0  0  0  0
  -16.6424   17.5416  -24.2433 C   0  0  0  0  0  0  0  0  0  0  0  0
  -16.8550   16.2242  -23.7884 C   0  0  0  0  0  0  0  0  0  0  0  0
  -17.7038   15.9463  -22.7059 O   0  0  0  0  0  0  0  0  0  0  0  0
  -17.9014   14.6482  -22.1533 C   0  0  0  0  0  0  0  0  0  0  0  0
  -15.1950   13.1854  -26.0323 N   0  0  0  0  0  0  0  0  0  0  0  0
  -14.8831   12.3618  -27.0656 C   0  0  0  0  0  0  0  0  0  0  0  0
  -12.5252   14.5542  -28.8475 C   0  0  0  0  0  0  0  0  0  0  0  0
  -11.8127   15.7533  -28.6698 C   0  0  0  0  0  0  0  0  0  0  0  0
  -11.0564   16.3565  -29.8260 C   0  0  0  0  0  0  0  0  0  0  0  0
  -10.7125   17.6668  -29.5417 F   0  0  0  0  0  0  0  0  0  0  0  0
  -11.8544   16.3284  -30.9522 F   0  0  0  0  0  0  0  0  0  0  0  0
   -9.8939   15.6413  -30.0789 F   0  0  0  0  0  0  0  0  0  0  0  0
  -11.7260   16.3162  -27.3808 C   0  0  0  0  0  0  0  0  0  0  0  0
  1  2  2  0
  2  3  1  0
  3  4  2  0
  3  5  1  0
  5  6  1  0
  6  7  2  0
  7  8  1  0
  8  9  1  0
  8 37  2  0
  9 10  1  0
 10 11  2  0
 10 12  1  0
 12 13  2  0
 13 14  1  0
 13 15  1  0
 15 16  2  0
 16 17  1  0
 17 18  2  0
 18 19  1  0
 18 35  1  0
 19 20  1  0
 20 21  2  0
 21 22  1  0
 22 23  2  0
 23 24  1  0
 23 31  1  0
 24 25  1  0
 25 26  1  0
 26 27  1  0
 27 28  1  0
 27 29  1  0
 29 30  1  0
 30 24  1  0
 31 32  2  0
 32 33  1  0
 32 20  1  0
 33 34  1  0
 35 36  2  0
 36  9  1  0
 36 15  1  0
 37 38  1  0
 38 39  1  0
 38 43  2  0
 39 40  1  0
 39 41  1  0
 39 42  1  0
 43  6  1  0
M  END
$$$$
CHEMBL4068047_plants_10
     RDKit          3D

 43 47  0  0  0  0  0  0  0  0999 V2000
  -19.1343   16.2504  -24.7606 C   0  0  0  0  0  0  0  0  0  0  0  0
  -19.5412   15.1183  -25.3513 C   0  0  0  0  0  0  0  0  0  0  0  0
  -18.6791   13.9300  -25.4480 C   0  0  0  0  0  0  0  0  0  0  0  0
  -19.1975   12.7687  -25.5322 O   0  0  0  0  0  0  0  0  0  0  0  0
  -17.2598   14.0839  -25.3987 N   0  0  0  0  0  0  0  0  0  0  0  0
  -16.3617   13.3222  -26.2256 C   0  0  0  0  0  0  0  0  0  0  0  0
  -15.2420   13.9259  -26.8157 C   0  0  0  0  0  0  0  0  0  0  0  0
  -14.3854   13.1905  -27.6397 C   0  0  0  0  0  0  0  0  0  0  0  0
  -13.2805   13.8447  -28.2980 N   0  0  0  0  0  0  0  0  0  0  0  0
  -12.5197   13.1531  -29.1986 C   0  0  0  0  0  0  0  0  0  0  0  0
  -12.7870   11.9552  -29.4770 O   0  0  0  0  0  0  0  0  0  0  0  0
  -11.4354   13.7722  -29.8331 C   0  0  0  0  0  0  0  0  0  0  0  0
  -11.1283   15.1102  -29.5575 C   0  0  0  0  0  0  0  0  0  0  0  0
   -9.9686   15.7575  -30.2658 C   0  0  0  0  0  0  0  0  0  0  0  0
  -11.9129   15.8155  -28.6188 C   0  0  0  0  0  0  0  0  0  0  0  0
  -11.6702   17.1532  -28.2597 C   0  0  0  0  0  0  0  0  0  0  0  0
  -12.4664   17.7745  -27.3483 N   0  0  0  0  0  0  0  0  0  0  0  0
  -13.5053   17.1210  -26.7651 C   0  0  0  0  0  0  0  0  0  0  0  0
  -14.3769   17.8111  -25.8475 N   0  0  0  0  0  0  0  0  0  0  0  0
  -14.9846   16.8718  -24.9358 C   0  0  0  0  0  0  0  0  0  0  0  0
  -14.2475   15.7595  -24.4857 C   0  0  0  0  0  0  0  0  0  0  0  0
  -14.7750   14.8929  -23.5310 C   0  0  0  0  0  0  0  0  0  0  0  0
  -16.0530   15.1125  -23.0050 C   0  0  0  0  0  0  0  0  0  0  0  0
  -16.6073   14.1883  -22.0479 N   0  0  0  0  0  0  0  0  0  0  0  0
  -15.7378   13.1906  -21.4152 C   0  0  0  0  0  0  0  0  0  0  0  0
  -16.5398   11.9251  -21.0545 C   0  0  0  0  0  0  0  0  0  0  0  0
  -17.5667   11.6048  -22.0701 N   0  0  0  0  0  0  0  0  0  0  0  0
  -16.9631   11.1303  -23.3290 C   0  0  0  0  0  0  0  0  0  0  0  0
  -18.5498   12.6999  -22.2994 C   0  0  0  0  0  0  0  0  0  0  0  0
  -18.0540   14.0821  -21.8348 C   0  0  0  0  0  0  0  0  0  0  0  0
  -16.8066   16.2039  -23.4640 C   0  0  0  0  0  0  0  0  0  0  0  0
  -16.2784   17.0956  -24.4198 C   0  0  0  0  0  0  0  0  0  0  0  0
  -17.0074   18.2052  -24.8746 O   0  0  0  0  0  0  0  0  0  0  0  0
  -17.4771   19.2562  -24.0353 C   0  0  0  0  0  0  0  0  0  0  0  0
  -13.7669   15.8332  -27.1118 N   0  0  0  0  0  0  0  0  0  0  0  0
  -12.9996   15.1563  -28.0043 C   0  0  0  0  0  0  0  0  0  0  0  0
  -14.6502   11.8351  -27.8865 C   0  0  0  0  0  0  0  0  0  0  0  0
  -15.7445   11.2025  -27.2706 C   0  0  0  0  0  0  0  0  0  0  0  0
  -16.0618    9.7649  -27.5951 C   0  0  0  0  0  0  0  0  0  0  0  0
  -15.8549    9.5213  -28.9420 F   0  0  0  0  0  0  0  0  0  0  0  0
  -17.3828    9.5120  -27.2835 F   0  0  0  0  0  0  0  0  0  0  0  0
  -15.2532    8.9064  -26.8632 F   0  0  0  0  0  0  0  0  0  0  0  0
  -16.5964   11.9579  -26.4400 C   0  0  0  0  0  0  0  0  0  0  0  0
  1  2  2  0
  2  3  1  0
  3  4  2  0
  3  5  1  0
  5  6  1  0
  6  7  2  0
  7  8  1  0
  8  9  1  0
  8 37  2  0
  9 10  1  0
 10 11  2  0
 10 12  1  0
 12 13  2  0
 13 14  1  0
 13 15  1  0
 15 16  2  0
 16 17  1  0
 17 18  2  0
 18 19  1  0
 18 35  1  0
 19 20  1  0
 20 21  2  0
 21 22  1  0
 22 23  2  0
 23 24  1  0
 23 31  1  0
 24 25  1  0
 25 26  1  0
 26 27  1  0
 27 28  1  0
 27 29  1  0
 29 30  1  0
 30 24  1  0
 31 32  2  0
 32 33  1  0
 32 20  1  0
 33 34  1  0
 35 36  2  0
 36  9  1  0
 36 15  1  0
 37 38  1  0
 38 39  1  0
 38 43  2  0
 39 40  1  0
 39 41  1  0
 39 42  1  0
 43  6  1  0
M  END
$$$$
CHEMBL3425665_plants_01
     RDKit          3D

 40 43  0  0  1  0  0  0  0  0999 V2000
  -11.0346   16.3776  -29.4249 C   0  0  0  0  0  0  0  0  0  0  0  0
  -10.5859   15.1437  -29.7257 C   0  0  0  0  0  0  0  0  0  0  0  0
   -9.6068   14.9527  -30.7849 C   0  0  0  0  0  0  0  0  0  0  0  0
   -8.8144   14.7858  -31.6204 N   0  0  0  0  0  0  0  0  0  0  0  0
  -11.0156   13.9626  -28.9505 C   0  0  0  0  0  0  0  0  0  0  0  0
  -10.9627   12.8123  -29.4773 O   0  0  0  0  0  0  0  0  0  0  0  0
  -11.5077   14.0993  -27.6130 N   0  0  0  0  0  0  0  0  0  0  0  0
  -12.8989   14.2402  -27.2834 C   0  0  0  0  0  0  0  0  0  0  0  0
  -13.4468   15.5210  -27.1574 C   0  0  0  0  0  0  0  0  0  0  0  0
  -14.7812   15.6880  -26.7726 C   0  0  0  0  0  0  0  0  0  0  0  0
  -15.5865   14.5707  -26.5187 C   0  0  0  0  0  0  0  0  0  0  0  0
  -15.0662   13.2828  -26.6751 C   0  0  0  0  0  0  0  0  0  0  0  0
  -15.8903   12.1781  -26.4392 O   0  0  0  0  0  0  0  0  0  0  0  0
  -17.1325   12.2643  -25.8107 C   0  0  0  0  0  0  0  0  0  0  0  0
  -17.3666   13.2257  -24.8823 N   0  0  0  0  0  0  0  0  0  0  0  0
  -18.5405   13.2824  -24.1954 C   0  0  0  0  0  0  0  0  0  0  0  0
  -18.6970   14.2163  -23.1206 N   0  0  0  0  0  0  0  0  0  0  0  0
  -17.7316   15.2752  -23.2814 C   0  0  0  0  0  0  0  0  0  0  0  0
  -18.1788   16.5878  -23.5334 C   0  0  0  0  0  0  0  0  0  0  0  0
  -17.2728   17.6392  -23.6075 C   0  0  0  0  0  0  0  0  0  0  0  0
  -15.9023   17.4263  -23.3987 C   0  0  0  0  0  0  0  0  0  0  0  0
  -14.9756   18.5341  -23.4125 N   0  0  0  0  0  0  0  0  0  0  0  0
  -15.4723   19.9164  -23.5084 C   0  0  0  0  0  0  0  0  0  0  0  0
  -14.3634   20.9113  -23.1543 C   0  0  0  0  0  0  0  0  0  0  0  0
  -13.1488   20.7076  -23.9814 N   0  0  0  0  0  0  0  0  0  0  0  0
  -13.2939   21.3062  -25.3301 C   0  0  0  0  0  0  0  0  0  0  0  0
  -12.7051   19.2758  -24.0600 C   0  0  0  0  0  0  0  0  0  0  0  0
  -13.5408   18.3084  -23.1938 C   0  0  0  0  0  0  0  0  0  0  0  0
  -15.4463   16.1196  -23.1383 C   0  0  0  0  0  0  0  0  0  0  0  0
  -16.3496   15.0409  -23.0820 C   0  0  0  0  0  0  0  0  0  0  0  0
  -15.9136   13.7353  -22.7879 O   0  0  0  0  0  0  0  0  0  0  0  0
  -16.6022   12.8112  -21.9520 C   0  0  0  0  0  0  0  0  0  0  0  0
  -19.5215   12.3761  -24.4620 N   0  0  0  0  0  0  0  0  0  0  0  0
  -19.3386   11.4114  -25.4048 C   0  0  0  0  0  0  0  0  0  0  0  0
  -18.1273   11.3229  -26.0936 C   0  0  0  0  0  0  0  0  0  0  0  0
  -17.8798   10.0660  -27.2927 Cl  0  0  0  0  0  0  0  0  0  0  0  0
  -13.7200   13.1175  -27.0509 C   0  0  0  0  0  0  0  0  0  0  0  0
  -10.5895   17.6348  -30.1430 C   0  0  0  0  0  0  0  0  0  0  0  0
   -9.0955   17.8747  -29.9174 C   0  0  0  0  0  0  0  0  0  0  0  0
  -10.8966   17.5230  -31.6407 C   0  0  0  0  0  0  0  0  0  0  0  0
  1  2  2  0
  1 38  1  0
  2  3  1  0
  2  5  1  0
  3  4  3  0
  5  6  2  0
  5  7  1  0
  7  8  1  0
  8  9  2  0
  9 10  1  0
 10 11  2  0
 11 12  1  0
 12 13  1  0
 12 37  2  0
 13 14  1  0
 14 15  2  0
 15 16  1  0
 16 17  1  0
 16 33  2  0
 17 18  1  0
 18 19  2  0
 19 20  1  0
 20 21  2  0
 21 22  1  0
 21 29  1  0
 22 23  1  0
 23 24  1  0
 24 25  1  0
 25 26  1  0
 25 27  1  0
 27 28  1  0
 28 22  1  0
 29 30  2  0
 30 31  1  0
 30 18  1  0
 31 32  1  0
 33 34  1  0
 34 35  2  0
 35 36  1  0
 35 14  1  0
 37  8  1  0
 38 39  1  0
 38 40  1  0
M  CHG  1  25   1
M  END
$$$$
CHEMBL3425665_plants_02
     RDKit          3D

 40 43  0  0  1  0  0  0  0  0999 V2000
  -11.1556   16.6903  -30.0987 C   0  0  0  0  0  0  0  0  0  0  0  0
  -10.7549   17.0968  -28.8787 C   0  0  0  0  0  0  0  0  0  0  0  0
   -9.4409   17.6941  -28.6950 C   0  0  0  0  0  0  0  0  0  0  0  0
   -8.3873   18.1598  -28.5314 N   0  0  0  0  0  0  0  0  0  0  0  0
  -11.6547   17.0154  -27.7107 C   0  0  0  0  0  0  0  0  0  0  0  0
  -11.2809   17.4857  -26.5960 O   0  0  0  0  0  0  0  0  0  0  0  0
  -12.9417   16.3970  -27.8148 N   0  0  0  0  0  0  0  0  0  0  0  0
  -13.1910   15.0143  -27.5152 C   0  0  0  0  0  0  0  0  0  0  0  0
  -12.1094   14.1407  -27.3617 C   0  0  0  0  0  0  0  0  0  0  0  0
  -12.3242   12.7772  -27.1355 C   0  0  0  0  0  0  0  0  0  0  0  0
  -13.6284   12.2739  -27.0504 C   0  0  0  0  0  0  0  0  0  0  0  0
  -14.7210   13.1380  -27.1648 C   0  0  0  0  0  0  0  0  0  0  0  0
  -16.0161   12.6225  -27.0550 O   0  0  0  0  0  0  0  0  0  0  0  0
  -16.5864   12.2238  -25.8462 C   0  0  0  0  0  0  0  0  0  0  0  0
  -16.7268   13.1100  -24.8284 N   0  0  0  0  0  0  0  0  0  0  0  0
  -17.2043   12.7286  -23.6121 C   0  0  0  0  0  0  0  0  0  0  0  0
  -17.1999   13.6539  -22.5186 N   0  0  0  0  0  0  0  0  0  0  0  0
  -16.7475   14.9365  -22.9976 C   0  0  0  0  0  0  0  0  0  0  0  0
  -15.4148   15.0828  -23.4322 C   0  0  0  0  0  0  0  0  0  0  0  0
  -14.9790   16.2848  -23.9771 C   0  0  0  0  0  0  0  0  0  0  0  0
  -15.8596   17.3642  -24.1400 C   0  0  0  0  0  0  0  0  0  0  0  0
  -15.4156   18.5874  -24.7670 N   0  0  0  0  0  0  0  0  0  0  0  0
  -14.1365   18.6270  -25.4940 C   0  0  0  0  0  0  0  0  0  0  0  0
  -14.0465   19.8908  -26.3540 C   0  0  0  0  0  0  0  0  0  0  0  0
  -14.2607   21.1228  -25.5558 N   0  0  0  0  0  0  0  0  0  0  0  0
  -13.0423   21.5123  -24.8061 C   0  0  0  0  0  0  0  0  0  0  0  0
  -15.4621   21.0593  -24.6581 C   0  0  0  0  0  0  0  0  0  0  0  0
  -16.2919   19.7655  -24.8062 C   0  0  0  0  0  0  0  0  0  0  0  0
  -17.1954   17.2254  -23.7162 C   0  0  0  0  0  0  0  0  0  0  0  0
  -17.6460   16.0211  -23.1421 C   0  0  0  0  0  0  0  0  0  0  0  0
  -18.9864   15.8551  -22.7463 O   0  0  0  0  0  0  0  0  0  0  0  0
  -19.8330   14.7847  -23.1515 C   0  0  0  0  0  0  0  0  0  0  0  0
  -17.5826   11.4356  -23.4121 N   0  0  0  0  0  0  0  0  0  0  0  0
  -17.4838   10.5199  -24.4143 C   0  0  0  0  0  0  0  0  0  0  0  0
  -16.9658   10.8911  -25.6567 C   0  0  0  0  0  0  0  0  0  0  0  0
  -16.8151    9.7075  -26.9433 Cl  0  0  0  0  0  0  0  0  0  0  0  0
  -14.5024   14.5077  -27.4042 C   0  0  0  0  0  0  0  0  0  0  0  0
  -10.3030   16.7997  -31.3460 C   0  0  0  0  0  0  0  0  0  0  0  0
   -9.4409   15.5469  -31.5117 C   0  0  0  0  0  0  0  0  0  0  0  0
  -11.1934   17.0071  -32.5764 C   0  0  0  0  0  0  0  0  0  0  0  0
  1  2  2  0
  1 38  1  0
  2  3  1  0
  2  5  1  0
  3  4  3  0
  5  6  2  0
  5  7  1  0
  7  8  1  0
  8  9  2  0
  9 10  1  0
 10 11  2  0
 11 12  1  0
 12 13  1  0
 12 37  2  0
 13 14  1  0
 14 15  2  0
 15 16  1  0
 16 17  1  0
 16 33  2  0
 17 18  1  0
 18 19  2  0
 19 20  1  0
 20 21  2  0
 21 22  1  0
 21 29  1  0
 22 23  1  0
 23 24  1  0
 24 25  1  0
 25 26  1  0
 25 27  1  0
 27 28  1  0
 28 22  1  0
 29 30  2  0
 30 31  1  0
 30 18  1  0
 31 32  1  0
 33 34  1  0
 34 35  2  0
 35 36  1  0
 35 14  1  0
 37  8  1  0
 38 39  1  0
 38 40  1  0
M  CHG  1  25   1
M  END
$$$$
CHEMBL3425665_plants_03
     RDKit          3D

 40 43  0  0  1  0  0  0  0  0999 V2000
  -10.8677   15.7678  -29.3471 C   0  0  0  0  0  0  0  0  0  0  0  0
  -10.9253   14.4264  -29.4545 C   0  0  0  0  0  0  0  0  0  0  0  0
  -10.1694   13.7360  -30.4883 C   0  0  0  0  0  0  0  0  0  0  0  0
   -9.5475   13.1878  -31.3048 N   0  0  0  0  0  0  0  0  0  0  0  0
  -11.6947   13.6135  -28.4912 C   0  0  0  0  0  0  0  0  0  0  0  0
  -12.1651   12.4937  -28.8491 O   0  0  0  0  0  0  0  0  0  0  0  0
  -11.9315   14.0800  -27.1585 N   0  0  0  0  0  0  0  0  0  0  0  0
  -13.1032   14.8115  -26.7638 C   0  0  0  0  0  0  0  0  0  0  0  0
  -14.0381   15.1837  -27.7354 C   0  0  0  0  0  0  0  0  0  0  0  0
  -15.1539   15.9531  -27.3896 C   0  0  0  0  0  0  0  0  0  0  0  0
  -15.3512   16.3511  -26.0614 C   0  0  0  0  0  0  0  0  0  0  0  0
  -14.4467   15.9576  -25.0711 C   0  0  0  0  0  0  0  0  0  0  0  0
  -14.6708   16.3448  -23.7462 O   0  0  0  0  0  0  0  0  0  0  0  0
  -15.9397   16.5760  -23.2157 C   0  0  0  0  0  0  0  0  0  0  0  0
  -16.9002   15.6206  -23.2923 N   0  0  0  0  0  0  0  0  0  0  0  0
  -18.1693   15.8493  -22.8563 C   0  0  0  0  0  0  0  0  0  0  0  0
  -19.1926   14.8739  -23.0875 N   0  0  0  0  0  0  0  0  0  0  0  0
  -18.6527   13.8209  -23.9114 C   0  0  0  0  0  0  0  0  0  0  0  0
  -19.0646   13.7126  -25.2549 C   0  0  0  0  0  0  0  0  0  0  0  0
  -18.4956   12.7601  -26.0920 C   0  0  0  0  0  0  0  0  0  0  0  0
  -17.4776   11.9118  -25.6323 C   0  0  0  0  0  0  0  0  0  0  0  0
  -16.8462   10.9692  -26.5263 N   0  0  0  0  0  0  0  0  0  0  0  0
  -15.7044   11.3846  -27.3572 C   0  0  0  0  0  0  0  0  0  0  0  0
  -14.9922   10.1613  -27.9414 C   0  0  0  0  0  0  0  0  0  0  0  0
  -15.9226    9.2813  -28.6902 N   0  0  0  0  0  0  0  0  0  0  0  0
  -16.2008    9.8036  -30.0497 C   0  0  0  0  0  0  0  0  0  0  0  0
  -17.1911    8.9738  -27.9489 C   0  0  0  0  0  0  0  0  0  0  0  0
  -17.2422    9.5549  -26.5191 C   0  0  0  0  0  0  0  0  0  0  0  0
  -17.0535   12.0175  -24.2936 C   0  0  0  0  0  0  0  0  0  0  0  0
  -17.6359   12.9628  -23.4275 C   0  0  0  0  0  0  0  0  0  0  0  0
  -17.1983   13.1043  -22.0973 O   0  0  0  0  0  0  0  0  0  0  0  0
  -16.2988   12.2229  -21.4333 C   0  0  0  0  0  0  0  0  0  0  0  0
  -18.4840   17.0516  -22.2994 N   0  0  0  0  0  0  0  0  0  0  0  0
  -17.5439   18.0285  -22.1784 C   0  0  0  0  0  0  0  0  0  0  0  0
  -16.2469   17.8179  -22.6507 C   0  0  0  0  0  0  0  0  0  0  0  0
  -15.0391   19.0838  -22.5177 Cl  0  0  0  0  0  0  0  0  0  0  0  0
  -13.3186   15.1933  -25.4234 C   0  0  0  0  0  0  0  0  0  0  0  0
  -10.0518   16.6529  -30.2666 C   0  0  0  0  0  0  0  0  0  0  0  0
  -10.8656   17.0221  -31.5083 C   0  0  0  0  0  0  0  0  0  0  0  0
   -9.6035   17.9153  -29.5217 C   0  0  0  0  0  0  0  0  0  0  0  0
  1  2  2  0
  1 38  1  0
  2  3  1  0
  2  5  1  0
  3  4  3  0
  5  6  2  0
  5  7  1  0
  7  8  1  0
  8  9  2  0
  9 10  1  0
 10 11  2  0
 11 12  1  0
 12 13  1  0
 12 37  2  0
 13 14  1  0
 14 15  2  0
 15 16  1  0
 16 17  1  0
 16 33  2  0
 17 18  1  0
 18 19  2  0
 19 20  1  0
 20 21  2  0
 21 22  1  0
 21 29  1  0
 22 23  1  0
 23 24  1  0
 24 25  1  0
 25 26  1  0
 25 27  1  0
 27 28  1  0
 28 22  1  0
 29 30  2  0
 30 31  1  0
 30 18  1  0
 31 32  1  0
 33 34  1  0
 34 35  2  0
 35 36  1  0
 35 14  1  0
 37  8  1  0
 38 39  1  0
 38 40  1  0
M  CHG  1  25   1
M  END
$$$$
CHEMBL3425665_plants_04
     RDKit          3D

 40 43  0  0  1  0  0  0  0  0999 V2000
  -10.3571   15.9302  -29.8298 C   0  0  0  0  0  0  0  0  0  0  0  0
  -10.1370   14.6052  -29.9313 C   0  0  0  0  0  0  0  0  0  0  0  0
   -9.1006   14.0952  -30.8159 C   0  0  0  0  0  0  0  0  0  0  0  0
   -8.2706   13.6703  -31.5119 N   0  0  0  0  0  0  0  0  0  0  0  0
  -10.8857   13.6391  -29.1027 C   0  0  0  0  0  0  0  0  0  0  0  0
  -11.2074   12.5138  -29.5861 O   0  0  0  0  0  0  0  0  0  0  0  0
  -11.2688   13.9614  -27.7613 N   0  0  0  0  0  0  0  0  0  0  0  0
  -12.5372   14.5361  -27.4083 C   0  0  0  0  0  0  0  0  0  0  0  0
  -13.6248   13.6936  -27.1562 C   0  0  0  0  0  0  0  0  0  0  0  0
  -14.8869   14.2274  -26.8756 C   0  0  0  0  0  0  0  0  0  0  0  0
  -15.0718   15.6150  -26.8346 C   0  0  0  0  0  0  0  0  0  0  0  0
  -13.9885   16.4721  -27.0479 C   0  0  0  0  0  0  0  0  0  0  0  0
  -14.1859   17.8548  -26.9812 O   0  0  0  0  0  0  0  0  0  0  0  0
  -14.9029   18.4820  -25.9625 C   0  0  0  0  0  0  0  0  0  0  0  0
  -15.1630   17.8273  -24.8028 N   0  0  0  0  0  0  0  0  0  0  0  0
  -15.9292   18.3852  -23.8258 C   0  0  0  0  0  0  0  0  0  0  0  0
  -16.3062   17.6107  -22.6813 N   0  0  0  0  0  0  0  0  0  0  0  0
  -16.6654   16.2838  -23.1165 C   0  0  0  0  0  0  0  0  0  0  0  0
  -18.0243   15.9124  -23.1574 C   0  0  0  0  0  0  0  0  0  0  0  0
  -18.4009   14.6698  -23.6534 C   0  0  0  0  0  0  0  0  0  0  0  0
  -17.4457   13.7741  -24.1560 C   0  0  0  0  0  0  0  0  0  0  0  0
  -17.8511   12.5121  -24.7296 N   0  0  0  0  0  0  0  0  0  0  0  0
  -16.8970   11.3944  -24.8141 C   0  0  0  0  0  0  0  0  0  0  0  0
  -17.6297   10.0849  -25.1194 C   0  0  0  0  0  0  0  0  0  0  0  0
  -18.4633   10.1864  -26.3424 N   0  0  0  0  0  0  0  0  0  0  0  0
  -17.6511   10.0523  -27.5755 C   0  0  0  0  0  0  0  0  0  0  0  0
  -19.3277   11.4129  -26.3837 C   0  0  0  0  0  0  0  0  0  0  0  0
  -19.2511   12.2812  -25.1091 C   0  0  0  0  0  0  0  0  0  0  0  0
  -16.0858   14.1391  -24.1269 C   0  0  0  0  0  0  0  0  0  0  0  0
  -15.6870   15.3856  -23.6072 C   0  0  0  0  0  0  0  0  0  0  0  0
  -14.3357   15.7790  -23.6038 O   0  0  0  0  0  0  0  0  0  0  0  0
  -13.3142   15.2057  -24.4131 C   0  0  0  0  0  0  0  0  0  0  0  0
  -16.4246   19.6427  -23.9936 N   0  0  0  0  0  0  0  0  0  0  0  0
  -16.1654   20.3455  -25.1301 C   0  0  0  0  0  0  0  0  0  0  0  0
  -15.4075   19.7723  -26.1532 C   0  0  0  0  0  0  0  0  0  0  0  0
  -15.0915   20.6668  -27.6294 Cl  0  0  0  0  0  0  0  0  0  0  0  0
  -12.7222   15.9327  -27.3417 C   0  0  0  0  0  0  0  0  0  0  0  0
   -9.5846   16.9750  -30.6082 C   0  0  0  0  0  0  0  0  0  0  0  0
  -10.3103   17.3100  -31.9126 C   0  0  0  0  0  0  0  0  0  0  0  0
   -9.3985   18.2359  -29.7566 C   0  0  0  0  0  0  0  0  0  0  0  0
  1  2  2  0
  1 38  1  0
  2  3  1  0
  2  5  1  0
  3  4  3  0
  5  6  2  0
  5  7  1  0
  7  8  1  0
  8  9  2  0
  9 10  1  0
 10 11  2  0
 11 12  1  0
 12 13  1  0
 12 37  2  0
 13 14  1  0
 14 15  2  0
 15 16  1  0
 16 17  1  0
 16 33  2  0
 17 18  1  0
 18 19  2  0
 19 20  1  0
 20 21  2  0
 21 22  1  0
 21 29  1  0
 22 23  1  0
 23 24  1  0
 24 25  1  0
 25 26  1  0
 25 27  1  0
 27 28  1  0
 28 22  1  0
 29 30  2  0
 30 31  1  0
 30 18  1  0
 31 32  1  0
 33 34  1  0
 34 35  2  0
 35 36  1  0
 35 14  1  0
 37  8  1  0
 38 39  1  0
 38 40  1  0
M  CHG  1  25   1
M  END
$$$$
CHEMBL3425665_plants_05
     RDKit          3D

 40 43  0  0  1  0  0  0  0  0999 V2000
  -11.7207   16.9366  -28.8754 C   0  0  0  0  0  0  0  0  0  0  0  0
  -11.7502   17.0104  -27.5308 C   0  0  0  0  0  0  0  0  0  0  0  0
  -10.6464   17.6153  -26.8009 C   0  0  0  0  0  0  0  0  0  0  0  0
   -9.7569   18.0801  -26.2123 N   0  0  0  0  0  0  0  0  0  0  0  0
  -12.9245   16.5482  -26.7642 C   0  0  0  0  0  0  0  0  0  0  0  0
  -12.9993   16.7896  -25.5234 O   0  0  0  0  0  0  0  0  0  0  0  0
  -13.9768   15.8149  -27.4006 N   0  0  0  0  0  0  0  0  0  0  0  0
  -14.0323   14.3805  -27.4547 C   0  0  0  0  0  0  0  0  0  0  0  0
  -13.2090   13.6964  -28.3550 C   0  0  0  0  0  0  0  0  0  0  0  0
  -13.2900   12.3052  -28.4757 C   0  0  0  0  0  0  0  0  0  0  0  0
  -14.1922   11.5808  -27.6866 C   0  0  0  0  0  0  0  0  0  0  0  0
  -14.9968   12.2438  -26.7556 C   0  0  0  0  0  0  0  0  0  0  0  0
  -15.8761   11.5029  -25.9599 O   0  0  0  0  0  0  0  0  0  0  0  0
  -17.1590   11.9341  -25.6229 C   0  0  0  0  0  0  0  0  0  0  0  0
  -17.3340   12.9061  -24.6925 N   0  0  0  0  0  0  0  0  0  0  0  0
  -18.5757   13.2882  -24.2859 C   0  0  0  0  0  0  0  0  0  0  0  0
  -18.7213   14.2088  -23.1982 N   0  0  0  0  0  0  0  0  0  0  0  0
  -17.7467   15.2611  -23.3469 C   0  0  0  0  0  0  0  0  0  0  0  0
  -18.1802   16.5714  -23.6325 C   0  0  0  0  0  0  0  0  0  0  0  0
  -17.2675   17.6177  -23.6961 C   0  0  0  0  0  0  0  0  0  0  0  0
  -15.9048   17.4024  -23.4436 C   0  0  0  0  0  0  0  0  0  0  0  0
  -14.9729   18.5059  -23.4472 N   0  0  0  0  0  0  0  0  0  0  0  0
  -15.4636   19.8917  -23.5194 C   0  0  0  0  0  0  0  0  0  0  0  0
  -14.3476   20.8761  -23.1581 C   0  0  0  0  0  0  0  0  0  0  0  0
  -13.1395   20.6790  -23.9962 N   0  0  0  0  0  0  0  0  0  0  0  0
  -13.2908   21.2982  -25.3349 C   0  0  0  0  0  0  0  0  0  0  0  0
  -12.7032   19.2464  -24.0989 C   0  0  0  0  0  0  0  0  0  0  0  0
  -13.5378   18.2703  -23.2415 C   0  0  0  0  0  0  0  0  0  0  0  0
  -15.4628   16.0980  -23.1496 C   0  0  0  0  0  0  0  0  0  0  0  0
  -16.3723   15.0241  -23.1032 C   0  0  0  0  0  0  0  0  0  0  0  0
  -15.9513   13.7215  -22.7761 O   0  0  0  0  0  0  0  0  0  0  0  0
  -16.6883   12.7984  -21.9813 C   0  0  0  0  0  0  0  0  0  0  0  0
  -19.6750   12.7093  -24.8436 N   0  0  0  0  0  0  0  0  0  0  0  0
  -19.5451   11.7493  -25.7998 C   0  0  0  0  0  0  0  0  0  0  0  0
  -18.2770   11.3259  -26.2026 C   0  0  0  0  0  0  0  0  0  0  0  0
  -18.1062   10.0718  -27.4180 Cl  0  0  0  0  0  0  0  0  0  0  0  0
  -14.9218   13.6449  -26.6444 C   0  0  0  0  0  0  0  0  0  0  0  0
  -10.5725   17.4449  -29.7226 C   0  0  0  0  0  0  0  0  0  0  0  0
   -9.2788   16.7150  -29.3569 C   0  0  0  0  0  0  0  0  0  0  0  0
  -10.8930   17.2599  -31.2102 C   0  0  0  0  0  0  0  0  0  0  0  0
  1  2  2  0
  1 38  1  0
  2  3  1  0
  2  5  1  0
  3  4  3  0
  5  6  2  0
  5  7  1  0
  7  8  1  0
  8  9  2  0
  9 10  1  0
 10 11  2  0
 11 12  1  0
 12 13  1  0
 12 37  2  0
 13 14  1  0
 14 15  2  0
 15 16  1  0
 16 17  1  0
 16 33  2  0
 17 18  1  0
 18 19  2  0
 19 20  1  0
 20 21  2  0
 21 22  1  0
 21 29  1  0
 22 23  1  0
 23 24  1  0
 24 25  1  0
 25 26  1  0
 25 27  1  0
 27 28  1  0
 28 22  1  0
 29 30  2  0
 30 31  1  0
 30 18  1  0
 31 32  1  0
 33 34  1  0
 34 35  2  0
 35 36  1  0
 35 14  1  0
 37  8  1  0
 38 39  1  0
 38 40  1  0
M  CHG  1  25   1
M  END
$$$$
CHEMBL3425665_plants_06
     RDKit          3D

 40 43  0  0  1  0  0  0  0  0999 V2000
  -14.7686   11.5429  -27.4053 C   0  0  0  0  0  0  0  0  0  0  0  0
  -15.3355   10.6215  -28.2077 C   0  0  0  0  0  0  0  0  0  0  0  0
  -14.6869   10.2243  -29.4481 C   0  0  0  0  0  0  0  0  0  0  0  0
  -14.1867    9.9059  -30.4492 N   0  0  0  0  0  0  0  0  0  0  0  0
  -16.5872    9.9384  -27.8242 C   0  0  0  0  0  0  0  0  0  0  0  0
  -17.1913    9.2135  -28.6687 O   0  0  0  0  0  0  0  0  0  0  0  0
  -17.1394   10.0956  -26.5127 N   0  0  0  0  0  0  0  0  0  0  0  0
  -18.1240   11.0850  -26.1730 C   0  0  0  0  0  0  0  0  0  0  0  0
  -19.2507   11.2383  -26.9876 C   0  0  0  0  0  0  0  0  0  0  0  0
  -20.1914   12.2378  -26.7180 C   0  0  0  0  0  0  0  0  0  0  0  0
  -20.0186   13.0907  -25.6208 C   0  0  0  0  0  0  0  0  0  0  0  0
  -18.9178   12.9286  -24.7747 C   0  0  0  0  0  0  0  0  0  0  0  0
  -18.7723   13.7744  -23.6708 O   0  0  0  0  0  0  0  0  0  0  0  0
  -17.6819   14.6254  -23.4912 C   0  0  0  0  0  0  0  0  0  0  0  0
  -17.5633   15.7549  -24.2336 N   0  0  0  0  0  0  0  0  0  0  0  0
  -16.4699   16.5599  -24.1366 C   0  0  0  0  0  0  0  0  0  0  0  0
  -16.3086   17.6607  -25.0390 N   0  0  0  0  0  0  0  0  0  0  0  0
  -15.1452   17.4237  -25.8572 C   0  0  0  0  0  0  0  0  0  0  0  0
  -14.8986   16.1271  -26.3516 C   0  0  0  0  0  0  0  0  0  0  0  0
  -13.8320   15.8915  -27.2111 C   0  0  0  0  0  0  0  0  0  0  0  0
  -13.0011   16.9394  -27.6336 C   0  0  0  0  0  0  0  0  0  0  0  0
  -11.9352   16.6978  -28.5780 N   0  0  0  0  0  0  0  0  0  0  0  0
  -11.1173   17.8155  -29.0763 C   0  0  0  0  0  0  0  0  0  0  0  0
   -9.8564   17.2911  -29.7691 C   0  0  0  0  0  0  0  0  0  0  0  0
  -10.1760   16.3236  -30.8473 N   0  0  0  0  0  0  0  0  0  0  0  0
  -10.6087   17.0067  -32.0900 C   0  0  0  0  0  0  0  0  0  0  0  0
  -11.1529   15.2611  -30.4350 C   0  0  0  0  0  0  0  0  0  0  0  0
  -11.5640   15.3257  -28.9479 C   0  0  0  0  0  0  0  0  0  0  0  0
  -13.2440   18.2401  -27.1514 C   0  0  0  0  0  0  0  0  0  0  0  0
  -14.3073   18.4904  -26.2629 C   0  0  0  0  0  0  0  0  0  0  0  0
  -14.5843   19.7905  -25.8002 O   0  0  0  0  0  0  0  0  0  0  0  0
  -13.6766   20.8864  -25.8462 C   0  0  0  0  0  0  0  0  0  0  0  0
  -15.4809   16.2495  -23.2533 N   0  0  0  0  0  0  0  0  0  0  0  0
  -15.5723   15.1402  -22.4697 C   0  0  0  0  0  0  0  0  0  0  0  0
  -16.6735   14.2892  -22.5824 C   0  0  0  0  0  0  0  0  0  0  0  0
  -16.7829   12.8458  -21.5905 Cl  0  0  0  0  0  0  0  0  0  0  0  0
  -17.9665   11.9298  -25.0548 C   0  0  0  0  0  0  0  0  0  0  0  0
  -13.4580   12.2371  -27.7133 C   0  0  0  0  0  0  0  0  0  0  0  0
  -13.5974   13.1035  -28.9663 C   0  0  0  0  0  0  0  0  0  0  0  0
  -13.0184   13.0881  -26.5165 C   0  0  0  0  0  0  0  0  0  0  0  0
  1  2  2  0
  1 38  1  0
  2  3  1  0
  2  5  1  0
  3  4  3  0
  5  6  2  0
  5  7  1  0
  7  8  1  0
  8  9  2  0
  9 10  1  0
 10 11  2  0
 11 12  1  0
 12 13  1  0
 12 37  2  0
 13 14  1  0
 14 15  2  0
 15 16  1  0
 16 17  1  0
 16 33  2  0
 17 18  1  0
 18 19  2  0
 19 20  1  0
 20 21  2  0
 21 22  1  0
 21 29  1  0
 22 23  1  0
 23 24  1  0
 24 25  1  0
 25 26  1  0
 25 27  1  0
 27 28  1  0
 28 22  1  0
 29 30  2  0
 30 31  1  0
 30 18  1  0
 31 32  1  0
 33 34  1  0
 34 35  2  0
 35 36  1  0
 35 14  1  0
 37  8  1  0
 38 39  1  0
 38 40  1  0
M  CHG  1  25   1
M  END
$$$$
CHEMBL3425665_plants_07
     RDKit          3D

 40 43  0  0  1  0  0  0  0  0999 V2000
  -10.3783   16.1423  -29.8228 C   0  0  0  0  0  0  0  0  0  0  0  0
   -9.9174   14.8996  -30.0627 C   0  0  0  0  0  0  0  0  0  0  0  0
   -9.1271   14.6229  -31.2526 C   0  0  0  0  0  0  0  0  0  0  0  0
   -8.4979   14.3815  -32.2011 N   0  0  0  0  0  0  0  0  0  0  0  0
  -10.1369   13.8023  -29.0992 C   0  0  0  0  0  0  0  0  0  0  0  0
   -9.7690   12.6266  -29.3919 O   0  0  0  0  0  0  0  0  0  0  0  0
  -10.7756   14.0445  -27.8409 N   0  0  0  0  0  0  0  0  0  0  0  0
  -12.1871   13.8957  -27.6190 C   0  0  0  0  0  0  0  0  0  0  0  0
  -12.9066   14.9528  -27.0522 C   0  0  0  0  0  0  0  0  0  0  0  0
  -14.2681   14.8115  -26.7641 C   0  0  0  0  0  0  0  0  0  0  0  0
  -14.9279   13.6098  -27.0503 C   0  0  0  0  0  0  0  0  0  0  0  0
  -14.2333   12.5556  -27.6503 C   0  0  0  0  0  0  0  0  0  0  0  0
  -14.9126   11.3707  -27.9499 O   0  0  0  0  0  0  0  0  0  0  0  0
  -15.9707   10.8758  -27.1877 C   0  0  0  0  0  0  0  0  0  0  0  0
  -16.3069   11.4682  -26.0141 N   0  0  0  0  0  0  0  0  0  0  0  0
  -17.2808   10.9579  -25.2116 C   0  0  0  0  0  0  0  0  0  0  0  0
  -17.5076   11.5208  -23.9140 N   0  0  0  0  0  0  0  0  0  0  0  0
  -17.1137   12.9077  -23.9344 C   0  0  0  0  0  0  0  0  0  0  0  0
  -16.1453   13.3662  -23.0188 C   0  0  0  0  0  0  0  0  0  0  0  0
  -15.6874   14.6773  -23.0746 C   0  0  0  0  0  0  0  0  0  0  0  0
  -16.1491   15.5612  -24.0609 C   0  0  0  0  0  0  0  0  0  0  0  0
  -15.6201   16.9021  -24.1527 N   0  0  0  0  0  0  0  0  0  0  0  0
  -14.4827   17.3105  -23.3125 C   0  0  0  0  0  0  0  0  0  0  0  0
  -13.8820   18.6233  -23.8230 C   0  0  0  0  0  0  0  0  0  0  0  0
  -14.9000   19.6975  -23.9258 N   0  0  0  0  0  0  0  0  0  0  0  0
  -15.1895   20.3102  -22.6071 C   0  0  0  0  0  0  0  0  0  0  0  0
  -16.1593   19.2712  -24.6227 C   0  0  0  0  0  0  0  0  0  0  0  0
  -16.1162   17.8306  -25.1769 C   0  0  0  0  0  0  0  0  0  0  0  0
  -17.1110   15.1103  -24.9854 C   0  0  0  0  0  0  0  0  0  0  0  0
  -17.6006   13.7913  -24.9278 C   0  0  0  0  0  0  0  0  0  0  0  0
  -18.5354   13.3156  -25.8662 O   0  0  0  0  0  0  0  0  0  0  0  0
  -19.7452   12.6373  -25.5449 C   0  0  0  0  0  0  0  0  0  0  0  0
  -17.9613    9.8448  -25.6024 N   0  0  0  0  0  0  0  0  0  0  0  0
  -17.6745    9.2346  -26.7849 C   0  0  0  0  0  0  0  0  0  0  0  0
  -16.6562    9.7295  -27.6021 C   0  0  0  0  0  0  0  0  0  0  0  0
  -16.2683    8.9313  -29.1158 Cl  0  0  0  0  0  0  0  0  0  0  0  0
  -12.8608   12.6961  -27.9285 C   0  0  0  0  0  0  0  0  0  0  0  0
  -10.1382   17.3225  -30.7415 C   0  0  0  0  0  0  0  0  0  0  0  0
  -10.8996   17.1365  -32.0553 C   0  0  0  0  0  0  0  0  0  0  0  0
  -10.5651   18.6229  -30.0514 C   0  0  0  0  0  0  0  0  0  0  0  0
  1  2  2  0
  1 38  1  0
  2  3  1  0
  2  5  1  0
  3  4  3  0
  5  6  2  0
  5  7  1  0
  7  8  1  0
  8  9  2  0
  9 10  1  0
 10 11  2  0
 11 12  1  0
 12 13  1  0
 12 37  2  0
 13 14  1  0
 14 15  2  0
 15 16  1  0
 16 17  1  0
 16 33  2  0
 17 18  1  0
 18 19  2  0
 19 20  1  0
 20 21  2  0
 21 22  1  0
 21 29  1  0
 22 23  1  0
 23 24  1  0
 24 25  1  0
 25 26  1  0
 25 27  1  0
 27 28  1  0
 28 22  1  0
 29 30  2  0
 30 31  1  0
 30 18  1  0
 31 32  1  0
 33 34  1  0
 34 35  2  0
 35 36  1  0
 35 14  1  0
 37  8  1  0
 38 39  1  0
 38 40  1  0
M  CHG  1  25   1
M  END
$$$$
CHEMBL3425665_plants_08
     RDKit          3D

 40 43  0  0  1  0  0  0  0  0999 V2000
  -16.4993   15.8678  -22.8743 C   0  0  0  0  0  0  0  0  0  0  0  0
  -16.8363   17.1705  -22.8138 C   0  0  0  0  0  0  0  0  0  0  0  0
  -17.9225   17.6122  -21.9523 C   0  0  0  0  0  0  0  0  0  0  0  0
  -18.7806   17.9826  -21.2594 N   0  0  0  0  0  0  0  0  0  0  0  0
  -16.0758   18.1936  -23.5591 C   0  0  0  0  0  0  0  0  0  0  0  0
  -16.5646   19.3515  -23.7127 O   0  0  0  0  0  0  0  0  0  0  0  0
  -14.7964   17.8915  -24.1264 N   0  0  0  0  0  0  0  0  0  0  0  0
  -14.6073   17.4387  -25.4766 C   0  0  0  0  0  0  0  0  0  0  0  0
  -15.6452   16.7598  -26.1233 C   0  0  0  0  0  0  0  0  0  0  0  0
  -15.4652   16.2500  -27.4134 C   0  0  0  0  0  0  0  0  0  0  0  0
  -14.2434   16.4237  -28.0756 C   0  0  0  0  0  0  0  0  0  0  0  0
  -13.2076   17.1313  -27.4591 C   0  0  0  0  0  0  0  0  0  0  0  0
  -12.0020   17.3149  -28.1432 O   0  0  0  0  0  0  0  0  0  0  0  0
  -11.3432   16.2952  -28.8299 C   0  0  0  0  0  0  0  0  0  0  0  0
  -11.6720   14.9970  -28.6114 N   0  0  0  0  0  0  0  0  0  0  0  0
  -10.9909   13.9795  -29.2062 C   0  0  0  0  0  0  0  0  0  0  0  0
  -11.2666   12.6225  -28.8395 N   0  0  0  0  0  0  0  0  0  0  0  0
  -12.5928   12.5536  -28.2780 C   0  0  0  0  0  0  0  0  0  0  0  0
  -13.5780   11.7780  -28.9216 C   0  0  0  0  0  0  0  0  0  0  0  0
  -14.8381   11.6274  -28.3547 C   0  0  0  0  0  0  0  0  0  0  0  0
  -15.1468   12.2109  -27.1173 C   0  0  0  0  0  0  0  0  0  0  0  0
  -16.4366   11.9955  -26.5039 N   0  0  0  0  0  0  0  0  0  0  0  0
  -17.3036   10.8986  -26.9641 C   0  0  0  0  0  0  0  0  0  0  0  0
  -18.4310   10.6474  -25.9588 C   0  0  0  0  0  0  0  0  0  0  0  0
  -19.2092   11.8785  -25.6769 N   0  0  0  0  0  0  0  0  0  0  0  0
  -20.1916   12.1668  -26.7494 C   0  0  0  0  0  0  0  0  0  0  0  0
  -18.3561   13.0764  -25.3760 C   0  0  0  0  0  0  0  0  0  0  0  0
  -16.8422   12.7758  -25.3274 C   0  0  0  0  0  0  0  0  0  0  0  0
  -14.1666   12.9813  -26.4624 C   0  0  0  0  0  0  0  0  0  0  0  0
  -12.8927   13.1611  -27.0348 C   0  0  0  0  0  0  0  0  0  0  0  0
  -11.8913   13.8987  -26.3758 O   0  0  0  0  0  0  0  0  0  0  0  0
  -12.1144   14.7974  -25.2943 C   0  0  0  0  0  0  0  0  0  0  0  0
   -9.9742   14.2620  -30.0672 N   0  0  0  0  0  0  0  0  0  0  0  0
   -9.6291   15.5511  -30.3357 C   0  0  0  0  0  0  0  0  0  0  0  0
  -10.2989   16.6031  -29.7077 C   0  0  0  0  0  0  0  0  0  0  0  0
   -9.8407   18.2653  -30.0336 Cl  0  0  0  0  0  0  0  0  0  0  0  0
  -13.3871   17.6331  -26.1564 C   0  0  0  0  0  0  0  0  0  0  0  0
  -17.2016   14.7781  -22.0910 C   0  0  0  0  0  0  0  0  0  0  0  0
  -18.6529   14.6414  -22.5550 C   0  0  0  0  0  0  0  0  0  0  0  0
  -16.4568   13.4483  -22.2541 C   0  0  0  0  0  0  0  0  0  0  0  0
  1  2  2  0
  1 38  1  0
  2  3  1  0
  2  5  1  0
  3  4  3  0
  5  6  2  0
  5  7  1  0
  7  8  1  0
  8  9  2  0
  9 10  1  0
 10 11  2  0
 11 12  1  0
 12 13  1  0
 12 37  2  0
 13 14  1  0
 14 15  2  0
 15 16  1  0
 16 17  1  0
 16 33  2  0
 17 18  1  0
 18 19  2  0
 19 20  1  0
 20 21  2  0
 21 22  1  0
 21 29  1  0
 22 23  1  0
 23 24  1  0
 24 25  1  0
 25 26  1  0
 25 27  1  0
 27 28  1  0
 28 22  1  0
 29 30  2  0
 30 31  1  0
 30 18  1  0
 31 32  1  0
 33 34  1  0
 34 35  2  0
 35 36  1  0
 35 14  1  0
 37  8  1  0
 38 39  1  0
 38 40  1  0
M  CHG  1  25   1
M  END
$$$$
CHEMBL3425665_plants_09
     RDKit          3D

 40 43  0  0  1  0  0  0  0  0999 V2000
  -16.2638   18.0363  -23.9675 C   0  0  0  0  0  0  0  0  0  0  0  0
  -16.4875   19.2491  -24.5091 C   0  0  0  0  0  0  0  0  0  0  0  0
  -17.8196   19.8337  -24.4843 C   0  0  0  0  0  0  0  0  0  0  0  0
  -18.8891   20.2921  -24.4825 N   0  0  0  0  0  0  0  0  0  0  0  0
  -15.3842   20.0490  -25.0779 C   0  0  0  0  0  0  0  0  0  0  0  0
  -15.6259   20.8930  -25.9904 O   0  0  0  0  0  0  0  0  0  0  0  0
  -14.0379   19.8739  -24.6233 N   0  0  0  0  0  0  0  0  0  0  0  0
  -13.0931   18.9878  -25.2446 C   0  0  0  0  0  0  0  0  0  0  0  0
  -11.9392   18.6177  -24.5461 C   0  0  0  0  0  0  0  0  0  0  0  0
  -10.9709   17.8099  -25.1515 C   0  0  0  0  0  0  0  0  0  0  0  0
  -11.1529   17.3545  -26.4633 C   0  0  0  0  0  0  0  0  0  0  0  0
  -12.3168   17.6842  -27.1635 C   0  0  0  0  0  0  0  0  0  0  0  0
  -12.4928   17.2027  -28.4644 O   0  0  0  0  0  0  0  0  0  0  0  0
  -11.6740   16.2339  -29.0443 C   0  0  0  0  0  0  0  0  0  0  0  0
  -11.9283   14.9152  -28.8507 N   0  0  0  0  0  0  0  0  0  0  0  0
  -11.0995   13.9508  -29.3366 C   0  0  0  0  0  0  0  0  0  0  0  0
  -11.3161   12.5783  -28.9884 N   0  0  0  0  0  0  0  0  0  0  0  0
  -12.6340   12.4464  -28.4183 C   0  0  0  0  0  0  0  0  0  0  0  0
  -13.5775   11.6056  -29.0422 C   0  0  0  0  0  0  0  0  0  0  0  0
  -14.8247   11.3958  -28.4657 C   0  0  0  0  0  0  0  0  0  0  0  0
  -15.1597   11.9842  -27.2373 C   0  0  0  0  0  0  0  0  0  0  0  0
  -16.4327   11.7090  -26.6130 N   0  0  0  0  0  0  0  0  0  0  0  0
  -17.3337   10.6928  -27.1806 C   0  0  0  0  0  0  0  0  0  0  0  0
  -18.4325   10.3291  -26.1780 C   0  0  0  0  0  0  0  0  0  0  0  0
  -19.1789   11.5241  -25.7134 N   0  0  0  0  0  0  0  0  0  0  0  0
  -20.1900   11.9621  -26.7054 C   0  0  0  0  0  0  0  0  0  0  0  0
  -18.2950   12.6611  -25.2901 C   0  0  0  0  0  0  0  0  0  0  0  0
  -16.7860   12.3360  -25.3326 C   0  0  0  0  0  0  0  0  0  0  0  0
  -14.2208   12.8197  -26.6020 C   0  0  0  0  0  0  0  0  0  0  0  0
  -12.9614   13.0592  -27.1847 C   0  0  0  0  0  0  0  0  0  0  0  0
  -11.9996   13.8632  -26.5448 O   0  0  0  0  0  0  0  0  0  0  0  0
  -12.2571   14.7275  -25.4432 C   0  0  0  0  0  0  0  0  0  0  0  0
  -10.0038   14.3072  -30.0626 N   0  0  0  0  0  0  0  0  0  0  0  0
   -9.7262   15.6178  -30.3035 C   0  0  0  0  0  0  0  0  0  0  0  0
  -10.5507   16.6177  -29.7837 C   0  0  0  0  0  0  0  0  0  0  0  0
  -10.1824   18.3088  -30.0725 Cl  0  0  0  0  0  0  0  0  0  0  0  0
  -13.2842   18.5068  -26.5565 C   0  0  0  0  0  0  0  0  0  0  0  0
  -17.3403   17.1917  -23.3177 C   0  0  0  0  0  0  0  0  0  0  0  0
  -16.8367   15.7634  -23.1017 C   0  0  0  0  0  0  0  0  0  0  0  0
  -17.7697   17.8183  -21.9863 C   0  0  0  0  0  0  0  0  0  0  0  0
  1  2  2  0
  1 38  1  0
  2  3  1  0
  2  5  1  0
  3  4  3  0
  5  6  2  0
  5  7  1  0
  7  8  1  0
  8  9  2  0
  9 10  1  0
 10 11  2  0
 11 12  1  0
 12 13  1  0
 12 37  2  0
 13 14  1  0
 14 15  2  0
 15 16  1  0
 16 17  1  0
 16 33  2  0
 17 18  1  0
 18 19  2  0
 19 20  1  0
 20 21  2  0
 21 22  1  0
 21 29  1  0
 22 23  1  0
 23 24  1  0
 24 25  1  0
 25 26  1  0
 25 27  1  0
 27 28  1  0
 28 22  1  0
 29 30  2  0
 30 31  1  0
 30 18  1  0
 31 32  1  0
 33 34  1  0
 34 35  2  0
 35 36  1  0
 35 14  1  0
 37  8  1  0
 38 39  1  0
 38 40  1  0
M  CHG  1  25   1
M  END
$$$$
CHEMBL3425665_plants_10
     RDKit          3D

 40 43  0  0  1  0  0  0  0  0999 V2000
  -16.7252   17.7215  -23.3314 C   0  0  0  0  0  0  0  0  0  0  0  0
  -16.9916   18.8150  -24.0715 C   0  0  0  0  0  0  0  0  0  0  0  0
  -18.3195   19.4096  -24.0574 C   0  0  0  0  0  0  0  0  0  0  0  0
  -19.3734   19.9027  -24.0532 N   0  0  0  0  0  0  0  0  0  0  0  0
  -15.9360   19.4821  -24.8595 C   0  0  0  0  0  0  0  0  0  0  0  0
  -16.1857   20.5775  -25.4436 O   0  0  0  0  0  0  0  0  0  0  0  0
  -14.6340   18.9002  -24.9871 N   0  0  0  0  0  0  0  0  0  0  0  0
  -14.2461   18.0382  -26.0688 C   0  0  0  0  0  0  0  0  0  0  0  0
  -15.0399   16.9293  -26.3797 C   0  0  0  0  0  0  0  0  0  0  0  0
  -14.6512   16.0366  -27.3839 C   0  0  0  0  0  0  0  0  0  0  0  0
  -13.4647   16.2506  -28.0964 C   0  0  0  0  0  0  0  0  0  0  0  0
  -12.6776   17.3732  -27.8243 C   0  0  0  0  0  0  0  0  0  0  0  0
  -11.5076   17.5838  -28.5604 O   0  0  0  0  0  0  0  0  0  0  0  0
  -10.7948   16.5595  -29.1832 C   0  0  0  0  0  0  0  0  0  0  0  0
  -11.1853   15.2677  -29.0424 N   0  0  0  0  0  0  0  0  0  0  0  0
  -10.4621   14.2428  -29.5712 C   0  0  0  0  0  0  0  0  0  0  0  0
  -10.8207   12.8873  -29.2781 N   0  0  0  0  0  0  0  0  0  0  0  0
  -11.9856   12.8886  -28.4284 C   0  0  0  0  0  0  0  0  0  0  0  0
  -11.8940   13.4248  -27.1282 C   0  0  0  0  0  0  0  0  0  0  0  0
  -13.0224   13.5150  -26.3217 C   0  0  0  0  0  0  0  0  0  0  0  0
  -14.2798   13.1098  -26.7928 C   0  0  0  0  0  0  0  0  0  0  0  0
  -15.4582   13.2675  -25.9725 N   0  0  0  0  0  0  0  0  0  0  0  0
  -15.4848   14.2715  -24.8965 C   0  0  0  0  0  0  0  0  0  0  0  0
  -16.9187   14.4989  -24.4095 C   0  0  0  0  0  0  0  0  0  0  0  0
  -17.5718   13.2335  -23.9936 N   0  0  0  0  0  0  0  0  0  0  0  0
  -17.1473   12.8148  -22.6361 C   0  0  0  0  0  0  0  0  0  0  0  0
  -17.4162   12.1189  -24.9868 C   0  0  0  0  0  0  0  0  0  0  0  0
  -16.6886   12.5290  -26.2857 C   0  0  0  0  0  0  0  0  0  0  0  0
  -14.3832   12.5799  -28.0934 C   0  0  0  0  0  0  0  0  0  0  0  0
  -13.2452   12.4620  -28.9142 C   0  0  0  0  0  0  0  0  0  0  0  0
  -13.3385   11.9674  -30.2287 O   0  0  0  0  0  0  0  0  0  0  0  0
  -14.5340   11.9130  -30.9999 C   0  0  0  0  0  0  0  0  0  0  0  0
   -9.3355   14.5124  -30.2873 N   0  0  0  0  0  0  0  0  0  0  0  0
   -8.9227   15.7957  -30.4759 C   0  0  0  0  0  0  0  0  0  0  0  0
   -9.6379   16.8539  -29.9118 C   0  0  0  0  0  0  0  0  0  0  0  0
   -9.0951   18.5078  -30.1332 Cl  0  0  0  0  0  0  0  0  0  0  0  0
  -13.0648   18.2636  -26.8054 C   0  0  0  0  0  0  0  0  0  0  0  0
  -17.7480   17.0252  -22.4576 C   0  0  0  0  0  0  0  0  0  0  0  0
  -18.9354   16.5563  -23.3004 C   0  0  0  0  0  0  0  0  0  0  0  0
  -17.1014   15.8399  -21.7319 C   0  0  0  0  0  0  0  0  0  0  0  0
  1  2  2  0
  1 38  1  0
  2  3  1  0
  2  5  1  0
  3  4  3  0
  5  6  2  0
  5  7  1  0
  7  8  1  0
  8  9  2  0
  9 10  1  0
 10 11  2  0
 11 12  1  0
 12 13  1  0
 12 37  2  0
 13 14  1  0
 14 15  2  0
 15 16  1  0
 16 17  1  0
 16 33  2  0
 17 18  1  0
 18 19  2  0
 19 20  1  0
 20 21  2  0
 21 22  1  0
 21 29  1  0
 22 23  1  0
 23 24  1  0
 24 25  1  0
 25 26  1  0
 25 27  1  0
 27 28  1  0
 28 22  1  0
 29 30  2  0
 30 31  1  0
 30 18  1  0
 31 32  1  0
 33 34  1  0
 34 35  2  0
 35 36  1  0
 35 14  1  0
 37  8  1  0
 38 39  1  0
 38 40  1  0
M  CHG  1  25   1
M  END
$$$$
